#===========================================================
# GENERAL PROCEDURES
#===========================================================
units		real	# g/mol, angstroms, fs, kcal/mol, K, atm, charge*angstrom
dimension	3	# 3 dimensional simulation
newton		on	# use Newton's 3rd law
boundary	p p p	# periodic boundary conditions
atom_style	full    # molecular + charge

#===========================================================
# FORCE FIELD DEFINITION
#===========================================================
special_bonds  lj   0.0 0.0 0.0  coul 0.0 0.0 0.0     # NO     1-4 LJ/COUL interactions
pair_style     hybrid lj/cut/coul/long 14.0 14.0 # outer_LJ outer_Coul (cutoff values, see LAMMPS Doc)
kspace_style   pppm 0.0001          # long-range electrostatics sum method
bond_style     harmonic             # parameters needed: k_bond, r0
angle_style    harmonic             # parameters needed: k_theta, theta0
dihedral_style hybrid opls            # parameters needed: V1, V2, V3, V4
pair_modify    shift yes mix arithmetic       # using Lorenz-Berthelot mixing rules

#===========================================================
# SETUP SIMULATIONS
#===========================================================

# READ IN COEFFICIENTS/COORDINATES/TOPOLOGY
read_data md-18.data
  orthogonal box = (-11.286 -11.286 -11.286) to (11.286 11.286 11.286)
  reading atoms ...
  1002 atoms
  reading velocities ...
  1002 velocities
  scanning bonds ...
  scanning angles ...
  scanning dihedrals ...
  reading bonds ...
  835 bonds
  reading angles ...
  1169 angles
  reading dihedrals ...
  501 dihedrals
include md-18.in.settings
     # Non-bonded interactions (pair-wise)
     pair_coeff           1          1          lj/cut/coul/long     0.008370             2.469953
     pair_coeff           1          2          lj/cut/coul/long     0.001909             2.249713
     pair_coeff           1          3          lj/cut/coul/long     0.026873             3.130980
     pair_coeff           1          4          lj/cut/coul/long     0.036774             2.728958
     pair_coeff           2          2          lj/cut/coul/long     0.001000             1.784003
     pair_coeff           2          3          lj/cut/coul/long     0.003904             3.074540
     pair_coeff           2          4          lj/cut/coul/long     0.006268             2.609322
     pair_coeff           3          3          lj/cut/coul/long     0.203514             3.439990
     pair_coeff           3          4          lj/cut/coul/long     0.179366             3.226419
     pair_coeff           4          4          lj/cut/coul/long     0.202657             2.903387

     # Stretching interactions
     bond_coeff           1           366.904251           1.096103
     bond_coeff           2           612.219900           0.957501
     bond_coeff           3           368.709924           1.411527

     # Bending interactions
     angle_coeff          1           40.926667            108.205025
     angle_coeff          2           61.328715            112.232133
     angle_coeff          3           49.873049            108.741688

     # Dihedral interactions
     dihedral_coeff       1          opls                  0.105414            -0.205941             0.372587            -0.070860

# SET RUN PARAMETERS
timestep	1.0		# fs
run_style	verlet 		# Velocity-Verlet integrator
neigh_modify every 1 delay 0 check no one 10000 # More relaxed rebuild criteria can be used

#===========================================================
# RUN CONSTRAINED RELAXATION
#===========================================================

# SET OUTPUTS
thermo_style    custom step temp vol density etotal pe ebond eangle edihed ecoul elong evdwl enthalpy press
thermo_modify   format float %20.10f
thermo 1000

# DECLARE RELEVANT OUTPUT VARIABLES
variable        my_step equal   step
variable        my_temp equal   temp
variable        my_rho  equal   density
variable        my_pe   equal   pe
variable        my_ebon equal   ebond
variable        my_eang equal   eangle
variable        my_edih equal   edihed
variable        my_evdw equal   evdwl
variable        my_eel  equal   (ecoul+elong)
variable        my_ent  equal   enthalpy
variable        my_P    equal   press
variable        my_vol  equal   vol

fix  averages all ave/time 100 10 1000 v_my_temp v_my_rho v_my_vol v_my_pe v_my_edih v_my_evdw v_my_eel v_my_ent v_my_P file thermo.avg

# INITIALIZE VELOCITIES AND CREATE THE CONSTRAINED RELAXATION FIX
velocity        all create 100.0 18755 mom yes rot yes

fix relax all nve/limit 0.01
run             10000
PPPM initialization ...
  G vector (1/distance) = 0.185922
  grid = 8 8 8
  stencil order = 5
  estimated absolute RMS force accuracy = 0.00750692
  estimated relative force accuracy = 2.26069e-05
  3d grid and FFT values/proc = 343 8
  update every 1 steps, delay 0 steps, check no
Step Temp Volume Density TotEng PotEng E_bond E_angle E_dihed E_coul E_long E_vdwl Enthalpy Press
0       100.0000000000     11500.4529150015         0.7726314302      -257.4253469630      -555.8044329680       270.2344964825       323.0408288124        12.7221381524      2323.5500702622     -3092.9211576539      -392.4308090236      -292.2049238465      -207.3640472158
Averages over the last 6 of 11 rows, steps 5000 to 10000:
Temp Volume Density TotEng PotEng E_bond E_angle E_dihed E_coul E_long E_vdwl Enthalpy Press
13.1407 11500.5 0.772631 -1506.13 -1545.34 8.25945 17.2813 -37.414 2009.95 -3094.98 -448.436 -1778.02 -1621.1
Loop time of 13.8351 on 64 procs for 10000 steps with 1002 atoms

unfix relax

#===========================================================
# RUN RAMPED ANNEAL
#===========================================================

# REINITIALIZE THE VELOCITIES AND CREATE THE ANNEALING FIX
velocity        all create 100.0 18755 mom yes rot yes

fix mom all momentum 1000 linear 1 1 1 angular # Zero out system linear and angular momentum every ps
fix anneal all npt temp 100.0 298.0 100.0 iso 1.0 1.0 1000.0

# CREATE COORDINATE DUMPS FOR ANNEAL
dump anneal all custom 1000 anneal.lammpstrj id type x y z mol
dump_modify anneal sort id format float %20.10g

# RUN RAMPED ANNEAL
run 50000
PPPM initialization ...
  G vector (1/distance) = 0.185922
  grid = 8 8 8
  stencil order = 5
  estimated absolute RMS force accuracy = 0.00750692
  estimated relative force accuracy = 2.26069e-05
  3d grid and FFT values/proc = 343 8
Step Temp Volume Density TotEng PotEng E_bond E_angle E_dihed E_coul E_long E_vdwl Enthalpy Press
10000       100.0000000000     11500.4529150015         0.7726314302     -1257.9610693163     -1556.3401553213         8.1245311410        17.5165400001       -36.8141681289      2011.9128819590     -3094.1721296223      -462.9078106702     -1388.2495729369      -776.8108136273
Averages over the last 26 of 51 rows, steps 35000 to 60000:
Temp Volume Density TotEng PotEng E_bond E_angle E_dihed E_coul E_long E_vdwl Enthalpy Press
249.568 10567.9 0.841829 -45.4933 -790.151 221.255 270.284 5.96124 2235.75 -3093.94 -429.469 -8.26731 247.708
Loop time of 78.2975 on 64 procs for 50000 steps with 1002 atoms

unfix anneal

# RUN EQUILIBRATION PHASE AT FINAL TEMP
fix anneal all npt temp 298.0 298.0 100.0 iso 1.0 1.0 1000.0
run 50000
PPPM initialization ...
  G vector (1/distance) = 0.186241
  grid = 8 8 8
  stencil order = 5
  estimated absolute RMS force accuracy = 0.00739167
  estimated relative force accuracy = 2.22598e-05
  3d grid and FFT values/proc = 343 8
Step Temp Volume Density TotEng PotEng E_bond E_angle E_dihed E_coul E_long E_vdwl Enthalpy Press
60000       298.6072160329     11322.5675231634         0.7847700060       285.2850533056      -605.6964286383       261.6053577529       333.8496746508        10.2309609503      2301.5059767727     -3098.6671564479      -414.2212423172        26.4739477127     -1567.3359649742
Averages over the last 26 of 51 rows, steps 85000 to 110000:
Temp Volume Density TotEng PotEng E_bond E_angle E_dihed E_coul E_long E_vdwl Enthalpy Press
299.559 11391.2 0.780319 323.183 -570.638 262.298 318.714 11.8717 2335.65 -3097.87 -401.299 303.48 -124.587
Loop time of 69.4945 on 64 procs for 50000 steps with 1002 atoms

unfix anneal
undump anneal

# RETURN TO LESS FREQUENT NEIGHBOR BUILDS
neigh_modify every 1 delay 10 check yes one 10000 # More relaxed rebuild criteria can be used

#===========================================================
# RUN EQUILIBRIUM SIM
#===========================================================

# UPDATE RUN PARAMETERS AND CREATE FIX
fix equil all npt temp 298.0 298.0 100.0 iso 1.0 1.0 1000.0

# CREATE COORDINATE DUMPS FOR EQUILIBRIUM
dump equil all custom 1000 equil.lammpstrj id type x y z mol
dump_modify equil sort id format float %20.10g

# RUN EQUIL
run		100000
PPPM initialization ...
  G vector (1/distance) = 0.186118
  grid = 8 8 8
  stencil order = 5
  estimated absolute RMS force accuracy = 0.0074359
  estimated relative force accuracy = 2.2393e-05
  3d grid and FFT values/proc = 343 8
Step Temp Volume Density TotEng PotEng E_bond E_angle E_dihed E_coul E_long E_vdwl Enthalpy Press
110000       297.6205096146     11390.8142205603         0.7800681507       323.4952378198      -564.5421185315       255.9671046175       313.3564581828        14.6808644366      2350.9336139773     -3096.5909809088      -402.8891788370       336.3141989227        77.1653217893
Averages over the last 51 of 101 rows, steps 160000 to 210000:
Temp Volume Density TotEng PotEng E_bond E_angle E_dihed E_coul E_long E_vdwl Enthalpy Press
298.775 11472 0.774791 326.017 -565.466 265.78 314.668 10.7609 2332.07 -3096.17 -392.576 332.94 48.047
Loop time of 67.1294 on 64 procs for 100000 steps with 1002 atoms

unfix equil
undump equil

# WRITE RESTART FILES, CLEANUP, AND EXIT
write_restart   md-18.end.restart
PPPM initialization ...
  G vector (1/distance) = 0.186532
  grid = 8 8 8
  stencil order = 5
  estimated absolute RMS force accuracy = 0.00728782
  estimated relative force accuracy = 2.19471e-05
  3d grid and FFT values/proc = 343 8
write_data      md-18.end.data pair ii
PPPM initialization ...
  G vector (1/distance) = 0.186532
  grid = 8 8 8
  stencil order = 5
  estimated absolute RMS force accuracy = 0.00728782
  estimated relative force accuracy = 2.19471e-05
  3d grid and FFT values/proc = 343 8
unfix		averages
