#===========================================================
# GENERAL PROCEDURES
#===========================================================
units		real	# g/mol, angstroms, fs, kcal/mol, K, atm, charge*angstrom
dimension	3	# 3 dimensional simulation
newton		on	# use Newton's 3rd law
boundary	p p p	# periodic boundary conditions
atom_style	full    # molecular + charge

#===========================================================
# FORCE FIELD DEFINITION
#===========================================================
special_bonds  lj   0.0 0.0 0.0  coul 0.0 0.0 0.0     # NO     1-4 LJ/COUL interactions
pair_style     hybrid lj/cut/coul/long 14.0 14.0 # outer_LJ outer_Coul (cutoff values, see LAMMPS Doc)
kspace_style   pppm 0.0001          # long-range electrostatics sum method
bond_style     harmonic             # parameters needed: k_bond, r0
angle_style    harmonic             # parameters needed: k_theta, theta0
dihedral_style hybrid opls            # parameters needed: V1, V2, V3, V4
pair_modify    shift yes mix arithmetic       # using Lorenz-Berthelot mixing rules

#===========================================================
# SETUP SIMULATIONS
#===========================================================

# READ IN COEFFICIENTS/COORDINATES/TOPOLOGY
read_data md-16.data
  orthogonal box = (-11.1914 -11.1914 -11.1914) to (11.1914 11.1914 11.1914)
  reading atoms ...
  1002 atoms
  reading velocities ...
  1002 velocities
  scanning bonds ...
  scanning angles ...
  scanning dihedrals ...
  reading bonds ...
  835 bonds
  reading angles ...
  1169 angles
  reading dihedrals ...
  501 dihedrals
include md-16.in.settings
     # Non-bonded interactions (pair-wise)
     pair_coeff           1          1          lj/cut/coul/long     0.008689             2.472252
     pair_coeff           1          2          lj/cut/coul/long     0.001927             2.250630
     pair_coeff           1          3          lj/cut/coul/long     0.027329             3.139994
     pair_coeff           1          4          lj/cut/coul/long     0.037668             2.729175
     pair_coeff           2          2          lj/cut/coul/long     0.001000             1.778089
     pair_coeff           2          3          lj/cut/coul/long     0.003844             3.083835
     pair_coeff           2          4          lj/cut/coul/long     0.006239             2.608279
     pair_coeff           3          3          lj/cut/coul/long     0.204805             3.450807
     pair_coeff           3          4          lj/cut/coul/long     0.179741             3.233680
     pair_coeff           4          4          lj/cut/coul/long     0.204174             2.902679

     # Stretching interactions
     bond_coeff           1           366.904251           1.096103
     bond_coeff           2           612.219900           0.957501
     bond_coeff           3           368.709924           1.411527

     # Bending interactions
     angle_coeff          1           40.926667            108.205025
     angle_coeff          2           61.328715            112.232133
     angle_coeff          3           49.873049            108.741688

     # Dihedral interactions
     dihedral_coeff       1          opls                  0.105414            -0.205941             0.372587            -0.070860

# SET RUN PARAMETERS
timestep	1.0		# fs
run_style	verlet 		# Velocity-Verlet integrator
neigh_modify every 1 delay 0 check no one 10000 # More relaxed rebuild criteria can be used

#===========================================================
# RUN CONSTRAINED RELAXATION
#===========================================================

# SET OUTPUTS
thermo_style    custom step temp vol density etotal pe ebond eangle edihed ecoul elong evdwl enthalpy press
thermo_modify   format float %20.10f
thermo 1000

# DECLARE RELEVANT OUTPUT VARIABLES
variable        my_step equal   step
variable        my_temp equal   temp
variable        my_rho  equal   density
variable        my_pe   equal   pe
variable        my_ebon equal   ebond
variable        my_eang equal   eangle
variable        my_edih equal   edihed
variable        my_evdw equal   evdwl
variable        my_eel  equal   (ecoul+elong)
variable        my_ent  equal   enthalpy
variable        my_P    equal   press
variable        my_vol  equal   vol

fix  averages all ave/time 100 10 1000 v_my_temp v_my_rho v_my_vol v_my_pe v_my_edih v_my_evdw v_my_eel v_my_ent v_my_P file thermo.avg

# INITIALIZE VELOCITIES AND CREATE THE CONSTRAINED RELAXATION FIX
velocity        all create 100.0 1113 mom yes rot yes

fix relax all nve/limit 0.01
run             10000
PPPM initialization ...
  G vector (1/distance) = 0.186439
  grid = 8 8 8
  stencil order = 5
  estimated absolute RMS force accuracy = 0.00732095
  estimated relative force accuracy = 2.20468e-05
  3d grid and FFT values/proc = 343 8
  update every 1 steps, delay 0 steps, check no
Step Temp Volume Density TotEng PotEng E_bond E_angle E_dihed E_coul E_long E_vdwl Enthalpy Press
0       100.0000000000     11213.4705672795         0.7924051105      -312.1281125514      -610.5071985564       246.5252355953       317.6874546746        21.1648592587      2329.4368365962     -3100.7213104581      -424.6002742231      -432.8703329324      -738.3175998398
Averages over the last 6 of 11 rows, steps 5000 to 10000:
Temp Volume Density TotEng PotEng E_bond E_angle E_dihed E_coul E_long E_vdwl Enthalpy Press
13.1122 11213.5 0.792405 -1509.22 -1548.35 8.26305 16.8418 -37.5413 2027.25 -3103.76 -459.406 -1867.03 -2187.9
Loop time of 11.4804 on 64 procs for 10000 steps with 1002 atoms

unfix relax

#===========================================================
# RUN RAMPED ANNEAL
#===========================================================

# REINITIALIZE THE VELOCITIES AND CREATE THE ANNEALING FIX
velocity        all create 100.0 1113 mom yes rot yes

fix mom all momentum 1000 linear 1 1 1 angular # Zero out system linear and angular momentum every ps
fix anneal all npt temp 100.0 298.0 100.0 iso 1.0 1.0 1000.0

# CREATE COORDINATE DUMPS FOR ANNEAL
dump anneal all custom 1000 anneal.lammpstrj id type x y z mol
dump_modify anneal sort id format float %20.10g

# RUN RAMPED ANNEAL
run 50000
PPPM initialization ...
  G vector (1/distance) = 0.186439
  grid = 8 8 8
  stencil order = 5
  estimated absolute RMS force accuracy = 0.00732095
  estimated relative force accuracy = 2.20468e-05
  3d grid and FFT values/proc = 343 8
Step Temp Volume Density TotEng PotEng E_bond E_angle E_dihed E_coul E_long E_vdwl Enthalpy Press
10000       100.0000000000     11213.4705672795         0.7924051105     -1259.9805672358     -1558.3596532408         8.2465199019        17.2900806508       -37.9540046821      2024.9233255290     -3104.1924105194      -466.6731641209     -1465.1585907180     -1254.6277959707
Averages over the last 26 of 51 rows, steps 35000 to 60000:
Temp Volume Density TotEng PotEng E_bond E_angle E_dihed E_coul E_long E_vdwl Enthalpy Press
247.987 10595.2 0.840095 -56.06 -796 217.911 272.779 5.59584 2252.72 -3102.31 -442.696 -102.776 -305.27
Loop time of 62.4103 on 64 procs for 50000 steps with 1002 atoms

unfix anneal

# RUN EQUILIBRATION PHASE AT FINAL TEMP
fix anneal all npt temp 298.0 298.0 100.0 iso 1.0 1.0 1000.0
run 50000
PPPM initialization ...
  G vector (1/distance) = 0.186396
  grid = 8 8 8
  stencil order = 5
  estimated absolute RMS force accuracy = 0.00733607
  estimated relative force accuracy = 2.20924e-05
  3d grid and FFT values/proc = 343 8
Step Temp Volume Density TotEng PotEng E_bond E_angle E_dihed E_coul E_long E_vdwl Enthalpy Press
60000       292.6195942990     11236.7982379993         0.7907600720       302.1002961714      -571.0153747696       274.5014902963       335.2239972953         5.9063422958      2314.5690911735     -3100.4279217065      -400.7883741240         2.2953048206     -1829.4493351758
Averages over the last 26 of 51 rows, steps 85000 to 110000:
Temp Volume Density TotEng PotEng E_bond E_angle E_dihed E_coul E_long E_vdwl Enthalpy Press
295.424 11223.4 0.79197 295.522 -585.961 275.992 323.999 9.79798 2315.78 -3101.27 -410.26 278.891 -90.7341
Loop time of 58.8916 on 64 procs for 50000 steps with 1002 atoms

unfix anneal
undump anneal

# RETURN TO LESS FREQUENT NEIGHBOR BUILDS
neigh_modify every 1 delay 10 check yes one 10000 # More relaxed rebuild criteria can be used

#===========================================================
# RUN EQUILIBRIUM SIM
#===========================================================

# UPDATE RUN PARAMETERS AND CREATE FIX
fix equil all npt temp 298.0 298.0 100.0 iso 1.0 1.0 1000.0

# CREATE COORDINATE DUMPS FOR EQUILIBRIUM
dump equil all custom 1000 equil.lammpstrj id type x y z mol
dump_modify equil sort id format float %20.10g

# RUN EQUIL
run		100000
PPPM initialization ...
  G vector (1/distance) = 0.186962
  grid = 8 8 8
  stencil order = 5
  estimated absolute RMS force accuracy = 0.00713684
  estimated relative force accuracy = 2.14924e-05
  3d grid and FFT values/proc = 343 8
Step Temp Volume Density TotEng PotEng E_bond E_angle E_dihed E_coul E_long E_vdwl Enthalpy Press
110000       297.0546274258     10929.6726174171         0.8129805617       289.8789556110      -596.4699266376       276.8594165686       328.6944327580        10.2669043333      2323.2654933724     -3111.5227257869      -424.0334478830       601.7513946872      1956.5635292277
Averages over the last 51 of 101 rows, steps 160000 to 210000:
Temp Volume Density TotEng PotEng E_bond E_angle E_dihed E_coul E_long E_vdwl Enthalpy Press
298.514 11469.1 0.774998 312.402 -578.3 266.786 311.87 12.4973 2342.6 -3110.2 -401.853 315.032 20.2846
Loop time of 62.6256 on 64 procs for 100000 steps with 1002 atoms

unfix equil
undump equil

# WRITE RESTART FILES, CLEANUP, AND EXIT
write_restart   md-16.end.restart
PPPM initialization ...
  G vector (1/distance) = 0.185902
  grid = 8 8 8
  stencil order = 5
  estimated absolute RMS force accuracy = 0.00751438
  estimated relative force accuracy = 2.26293e-05
  3d grid and FFT values/proc = 343 8
write_data      md-16.end.data pair ii
PPPM initialization ...
  G vector (1/distance) = 0.185902
  grid = 8 8 8
  stencil order = 5
  estimated absolute RMS force accuracy = 0.00751438
  estimated relative force accuracy = 2.26293e-05
  3d grid and FFT values/proc = 343 8
unfix		averages
