#===========================================================
# GENERAL PROCEDURES
#===========================================================
units		real	# g/mol, angstroms, fs, kcal/mol, K, atm, charge*angstrom
dimension	3	# 3 dimensional simulation
newton		on	# use Newton's 3rd law
boundary	p p p	# periodic boundary conditions
atom_style	full    # molecular + charge

#===========================================================
# FORCE FIELD DEFINITION
#===========================================================
special_bonds  lj   0.0 0.0 0.0  coul 0.0 0.0 0.0     # NO     1-4 LJ/COUL interactions
pair_style     hybrid lj/cut/coul/long 14.0 14.0 # outer_LJ outer_Coul (cutoff values, see LAMMPS Doc)
kspace_style   pppm 0.0001          # long-range electrostatics sum method
bond_style     harmonic             # parameters needed: k_bond, r0
angle_style    harmonic             # parameters needed: k_theta, theta0
dihedral_style hybrid opls            # parameters needed: V1, V2, V3, V4
pair_modify    shift yes mix arithmetic       # using Lorenz-Berthelot mixing rules

#===========================================================
# SETUP SIMULATIONS
#===========================================================

# READ IN COEFFICIENTS/COORDINATES/TOPOLOGY
read_data md-21.data
  orthogonal box = (-11.1959 -11.1959 -11.1959) to (11.1959 11.1959 11.1959)
  reading atoms ...
  1002 atoms
  reading velocities ...
  1002 velocities
  scanning bonds ...
  scanning angles ...
  scanning dihedrals ...
  reading bonds ...
  835 bonds
  reading angles ...
  1169 angles
  reading dihedrals ...
  501 dihedrals
include md-21.in.settings
     # Non-bonded interactions (pair-wise)
     pair_coeff           1          1          lj/cut/coul/long     0.007356             2.469415
     pair_coeff           1          2          lj/cut/coul/long     0.001788             2.249079
     pair_coeff           1          3          lj/cut/coul/long     0.025276             3.130326
     pair_coeff           1          4          lj/cut/coul/long     0.034459             2.727159
     pair_coeff           2          2          lj/cut/coul/long     0.001000             1.782699
     pair_coeff           2          3          lj/cut/coul/long     0.003911             3.073871
     pair_coeff           2          4          lj/cut/coul/long     0.006262             2.607178
     pair_coeff           3          3          lj/cut/coul/long     0.204882             3.439275
     pair_coeff           3          4          lj/cut/coul/long     0.179586             3.225220
     pair_coeff           4          4          lj/cut/coul/long     0.202152             2.900987

     # Stretching interactions
     bond_coeff           1           366.904251           1.096103
     bond_coeff           2           612.219900           0.957501
     bond_coeff           3           368.709924           1.411527

     # Bending interactions
     angle_coeff          1           40.926667            108.205025
     angle_coeff          2           61.328715            112.232133
     angle_coeff          3           49.873049            108.741688

     # Dihedral interactions
     dihedral_coeff       1          opls                  0.105414            -0.205941             0.372587            -0.070860

# SET RUN PARAMETERS
timestep	1.0		# fs
run_style	verlet 		# Velocity-Verlet integrator
neigh_modify every 1 delay 0 check no one 10000 # More relaxed rebuild criteria can be used

#===========================================================
# RUN CONSTRAINED RELAXATION
#===========================================================

# SET OUTPUTS
thermo_style    custom step temp vol density etotal pe ebond eangle edihed ecoul elong evdwl enthalpy press
thermo_modify   format float %20.10f
thermo 1000

# DECLARE RELEVANT OUTPUT VARIABLES
variable        my_step equal   step
variable        my_temp equal   temp
variable        my_rho  equal   density
variable        my_pe   equal   pe
variable        my_ebon equal   ebond
variable        my_eang equal   eangle
variable        my_edih equal   edihed
variable        my_evdw equal   evdwl
variable        my_eel  equal   (ecoul+elong)
variable        my_ent  equal   enthalpy
variable        my_P    equal   press
variable        my_vol  equal   vol

fix  averages all ave/time 100 10 1000 v_my_temp v_my_rho v_my_vol v_my_pe v_my_edih v_my_evdw v_my_eel v_my_ent v_my_P file thermo.avg

# INITIALIZE VELOCITIES AND CREATE THE CONSTRAINED RELAXATION FIX
velocity        all create 100.0 95452 mom yes rot yes

fix relax all nve/limit 0.01
run             10000
PPPM initialization ...
  G vector (1/distance) = 0.186414
  grid = 8 8 8
  stencil order = 5
  estimated absolute RMS force accuracy = 0.00732983
  estimated relative force accuracy = 2.20736e-05
  3d grid and FFT values/proc = 343 8
  update every 1 steps, delay 0 steps, check no
Step Temp Volume Density TotEng PotEng E_bond E_angle E_dihed E_coul E_long E_vdwl Enthalpy Press
0       100.0000000000     11227.1720048708         0.7914380736      -228.4159523678      -526.7950383728       267.3377958912       325.7777174278        15.4198800936      2365.6468011690     -3100.8254563448      -400.1517766096      -697.3463300527     -2863.9280425431
Averages over the last 6 of 11 rows, steps 5000 to 10000:
Temp Volume Density TotEng PotEng E_bond E_angle E_dihed E_coul E_long E_vdwl Enthalpy Press
13.5895 11227.2 0.791438 -1477.34 -1517.89 8.20857 16.7798 -37.6739 2037.52 -3102.88 -439.841 -1810.46 -2034.46
Loop time of 12.3176 on 64 procs for 10000 steps with 1002 atoms

unfix relax

#===========================================================
# RUN RAMPED ANNEAL
#===========================================================

# REINITIALIZE THE VELOCITIES AND CREATE THE ANNEALING FIX
velocity        all create 100.0 95452 mom yes rot yes

fix mom all momentum 1000 linear 1 1 1 angular # Zero out system linear and angular momentum every ps
fix anneal all npt temp 100.0 298.0 100.0 iso 1.0 1.0 1000.0

# CREATE COORDINATE DUMPS FOR ANNEAL
dump anneal all custom 1000 anneal.lammpstrj id type x y z mol
dump_modify anneal sort id format float %20.10g

# RUN RAMPED ANNEAL
run 50000
PPPM initialization ...
  G vector (1/distance) = 0.186414
  grid = 8 8 8
  stencil order = 5
  estimated absolute RMS force accuracy = 0.00732983
  estimated relative force accuracy = 2.20736e-05
  3d grid and FFT values/proc = 343 8
Step Temp Volume Density TotEng PotEng E_bond E_angle E_dihed E_coul E_long E_vdwl Enthalpy Press
10000       100.0000000000     11227.1720048708         0.7914380736     -1234.0351411408     -1532.4142271458         8.1102348991        17.3814825807       -36.4467637687      2031.9608681944     -3102.7275095784      -450.6925394728     -1406.1315470820     -1051.0552236546
Averages over the last 26 of 51 rows, steps 35000 to 60000:
Temp Volume Density TotEng PotEng E_bond E_angle E_dihed E_coul E_long E_vdwl Enthalpy Press
249.002 10615.7 0.837964 -33.9553 -776.924 216.012 268.77 7.09532 2250.15 -3102.01 -416.947 -57.8178 -162.248
Loop time of 67.3691 on 64 procs for 50000 steps with 1002 atoms

unfix anneal

# RUN EQUILIBRATION PHASE AT FINAL TEMP
fix anneal all npt temp 298.0 298.0 100.0 iso 1.0 1.0 1000.0
run 50000
PPPM initialization ...
  G vector (1/distance) = 0.186402
  grid = 8 8 8
  stencil order = 5
  estimated absolute RMS force accuracy = 0.00733406
  estimated relative force accuracy = 2.20863e-05
  3d grid and FFT values/proc = 343 8
Step Temp Volume Density TotEng PotEng E_bond E_angle E_dihed E_coul E_long E_vdwl Enthalpy Press
60000       307.7932582532     11233.6917221422         0.7909787453       394.4280190160      -523.9626917450       271.8658356313       331.4663183267        15.5528278752      2345.2539574426     -3099.5764440408      -388.5251869800       566.3849465062      1049.5938697547
Averages over the last 26 of 51 rows, steps 85000 to 110000:
Temp Volume Density TotEng PotEng E_bond E_angle E_dihed E_coul E_long E_vdwl Enthalpy Press
298.352 11293.5 0.787107 325.589 -564.632 259.844 322.564 12.2516 2335.41 -3100.92 -393.785 320.197 -22.329
Loop time of 62.7421 on 64 procs for 50000 steps with 1002 atoms

unfix anneal
undump anneal

# RETURN TO LESS FREQUENT NEIGHBOR BUILDS
neigh_modify every 1 delay 10 check yes one 10000 # More relaxed rebuild criteria can be used

#===========================================================
# RUN EQUILIBRIUM SIM
#===========================================================

# UPDATE RUN PARAMETERS AND CREATE FIX
fix equil all npt temp 298.0 298.0 100.0 iso 1.0 1.0 1000.0

# CREATE COORDINATE DUMPS FOR EQUILIBRIUM
dump equil all custom 1000 equil.lammpstrj id type x y z mol
dump_modify equil sort id format float %20.10g

# RUN EQUIL
run		100000
PPPM initialization ...
  G vector (1/distance) = 0.185104
  grid = 8 8 8
  stencil order = 5
  estimated absolute RMS force accuracy = 0.00780971
  estimated relative force accuracy = 2.35187e-05
  3d grid and FFT values/proc = 343 8
Step Temp Volume Density TotEng PotEng E_bond E_angle E_dihed E_coul E_long E_vdwl Enthalpy Press
110000       302.5699643269     11968.3688397510         0.7424245946       345.6819310642      -557.1235630200       262.0550180931       317.3218699339         5.8216964069      2312.7691892747     -3078.6673637484      -376.4239729802       -34.0312888923     -2175.4287485269
Averages over the last 51 of 101 rows, steps 160000 to 210000:
Temp Volume Density TotEng PotEng E_bond E_angle E_dihed E_coul E_long E_vdwl Enthalpy Press
299.026 11427.7 0.777831 330.491 -561.742 263.884 314.715 11.0583 2314.83 -3079.29 -386.945 361.549 194.848
Loop time of 63.0595 on 64 procs for 100000 steps with 1002 atoms

unfix equil
undump equil

# WRITE RESTART FILES, CLEANUP, AND EXIT
write_restart   md-21.end.restart
PPPM initialization ...
  G vector (1/distance) = 0.185806
  grid = 8 8 8
  stencil order = 5
  estimated absolute RMS force accuracy = 0.00754932
  estimated relative force accuracy = 2.27346e-05
  3d grid and FFT values/proc = 343 8
write_data      md-21.end.data pair ii
PPPM initialization ...
  G vector (1/distance) = 0.185806
  grid = 8 8 8
  stencil order = 5
  estimated absolute RMS force accuracy = 0.00754932
  estimated relative force accuracy = 2.27346e-05
  3d grid and FFT values/proc = 343 8
unfix		averages
