#===========================================================
# GENERAL PROCEDURES
#===========================================================
units		real	# g/mol, angstroms, fs, kcal/mol, K, atm, charge*angstrom
dimension	3	# 3 dimensional simulation
newton		on	# use Newton's 3rd law
boundary	p p p	# periodic boundary conditions
atom_style	full    # molecular + charge

#===========================================================
# FORCE FIELD DEFINITION
#===========================================================
special_bonds  lj   0.0 0.0 0.0  coul 0.0 0.0 0.0     # NO     1-4 LJ/COUL interactions
pair_style     hybrid lj/cut/coul/long 14.0 14.0 # outer_LJ outer_Coul (cutoff values, see LAMMPS Doc)
kspace_style   pppm 0.0001          # long-range electrostatics sum method
bond_style     harmonic             # parameters needed: k_bond, r0
angle_style    harmonic             # parameters needed: k_theta, theta0
dihedral_style hybrid opls            # parameters needed: V1, V2, V3, V4
pair_modify    shift yes mix arithmetic       # using Lorenz-Berthelot mixing rules

#===========================================================
# SETUP SIMULATIONS
#===========================================================

# READ IN COEFFICIENTS/COORDINATES/TOPOLOGY
read_data md-9.data
  orthogonal box = (-11.0165 -11.0165 -11.0165) to (11.0165 11.0165 11.0165)
  reading atoms ...
  1002 atoms
  reading velocities ...
  1002 velocities
  scanning bonds ...
  scanning angles ...
  scanning dihedrals ...
  reading bonds ...
  835 bonds
  reading angles ...
  1169 angles
  reading dihedrals ...
  501 dihedrals
include md-9.in.settings
     # Non-bonded interactions (pair-wise)
     pair_coeff           1          1          lj/cut/coul/long     0.011399             2.467585
     pair_coeff           1          2          lj/cut/coul/long     0.002199             2.245978
     pair_coeff           1          3          lj/cut/coul/long     0.031335             3.122188
     pair_coeff           1          4          lj/cut/coul/long     0.042220             2.725219
     pair_coeff           2          2          lj/cut/coul/long     0.001000             1.772100
     pair_coeff           2          3          lj/cut/coul/long     0.003842             3.064913
     pair_coeff           2          4          lj/cut/coul/long     0.006076             2.604661
     pair_coeff           3          3          lj/cut/coul/long     0.201254             3.429453
     pair_coeff           3          4          lj/cut/coul/long     0.175724             3.217857
     pair_coeff           4          4          lj/cut/coul/long     0.195849             2.898955

     # Stretching interactions
     bond_coeff           1           366.904251           1.096103
     bond_coeff           2           612.219900           0.957501
     bond_coeff           3           368.709924           1.411527

     # Bending interactions
     angle_coeff          1           40.926667            108.205025
     angle_coeff          2           61.328715            112.232133
     angle_coeff          3           49.873049            108.741688

     # Dihedral interactions
     dihedral_coeff       1          opls                  0.105414            -0.205941             0.372587            -0.070860

# SET RUN PARAMETERS
timestep	1.0		# fs
run_style	verlet 		# Velocity-Verlet integrator
neigh_modify every 1 delay 0 check no one 10000 # More relaxed rebuild criteria can be used

#===========================================================
# RUN CONSTRAINED RELAXATION
#===========================================================

# SET OUTPUTS
thermo_style    custom step temp vol density etotal pe ebond eangle edihed ecoul elong evdwl enthalpy press
thermo_modify   format float %20.10f
thermo 1000

# DECLARE RELEVANT OUTPUT VARIABLES
variable        my_step equal   step
variable        my_temp equal   temp
variable        my_rho  equal   density
variable        my_pe   equal   pe
variable        my_ebon equal   ebond
variable        my_eang equal   eangle
variable        my_edih equal   edihed
variable        my_evdw equal   evdwl
variable        my_eel  equal   (ecoul+elong)
variable        my_ent  equal   enthalpy
variable        my_P    equal   press
variable        my_vol  equal   vol

fix  averages all ave/time 100 10 1000 v_my_temp v_my_rho v_my_vol v_my_pe v_my_edih v_my_evdw v_my_eel v_my_ent v_my_P file thermo.avg

# INITIALIZE VELOCITIES AND CREATE THE CONSTRAINED RELAXATION FIX
velocity        all create 100.0 65358 mom yes rot yes

fix relax all nve/limit 0.01
run             10000
PPPM initialization ...
  G vector (1/distance) = 0.187402
  grid = 8 8 8
  stencil order = 5
  estimated absolute RMS force accuracy = 0.00698511
  estimated relative force accuracy = 2.10354e-05
  3d grid and FFT values/proc = 343 8
  update every 1 steps, delay 0 steps, check no
Step Temp Volume Density TotEng PotEng E_bond E_angle E_dihed E_coul E_long E_vdwl Enthalpy Press
0       100.0000000000     10695.9790036771         0.8307431588      -361.5076479714      -659.8867339764       256.5094836910       304.3643699012        10.4504741816      2318.1110796254     -3117.7380962450      -431.5840451307      -371.0868229622       -61.4089505876
Averages over the last 6 of 11 rows, steps 5000 to 10000:
Temp Volume Density TotEng PotEng E_bond E_angle E_dihed E_coul E_long E_vdwl Enthalpy Press
12.8224 10696 0.830743 -1541.84 -1580.1 8.7067 17.2581 -37.7335 2035.1 -3120.41 -483.025 -1991.99 -2885.78
Loop time of 12.6007 on 64 procs for 10000 steps with 1002 atoms

unfix relax

#===========================================================
# RUN RAMPED ANNEAL
#===========================================================

# REINITIALIZE THE VELOCITIES AND CREATE THE ANNEALING FIX
velocity        all create 100.0 65358 mom yes rot yes

fix mom all momentum 1000 linear 1 1 1 angular # Zero out system linear and angular momentum every ps
fix anneal all npt temp 100.0 298.0 100.0 iso 1.0 1.0 1000.0

# CREATE COORDINATE DUMPS FOR ANNEAL
dump anneal all custom 1000 anneal.lammpstrj id type x y z mol
dump_modify anneal sort id format float %20.10g

# RUN RAMPED ANNEAL
run 50000
PPPM initialization ...
  G vector (1/distance) = 0.187402
  grid = 8 8 8
  stencil order = 5
  estimated absolute RMS force accuracy = 0.00698511
  estimated relative force accuracy = 2.10354e-05
  3d grid and FFT values/proc = 343 8
Step Temp Volume Density TotEng PotEng E_bond E_angle E_dihed E_coul E_long E_vdwl Enthalpy Press
10000       100.0000000000     10695.9790036771         0.8307431588     -1292.5591505831     -1590.9382365881         8.5538743831        17.2378895490       -38.4342882195      2035.7238115635     -3120.4990886034      -493.5204352608     -1545.0442852918     -1618.5994280734
Averages over the last 26 of 51 rows, steps 35000 to 60000:
Temp Volume Density TotEng PotEng E_bond E_angle E_dihed E_coul E_long E_vdwl Enthalpy Press
247.798 10439.3 0.851863 -80.4984 -819.875 231.795 270.794 4.1972 2242.05 -3118.28 -450.437 -115.348 -220.184
Loop time of 68.0143 on 64 procs for 50000 steps with 1002 atoms

unfix anneal

# RUN EQUILIBRATION PHASE AT FINAL TEMP
fix anneal all npt temp 298.0 298.0 100.0 iso 1.0 1.0 1000.0
run 50000
PPPM initialization ...
  G vector (1/distance) = 0.187569
  grid = 8 8 8
  stencil order = 5
  estimated absolute RMS force accuracy = 0.00692832
  estimated relative force accuracy = 2.08644e-05
  3d grid and FFT values/proc = 343 8
Step Temp Volume Density TotEng PotEng E_bond E_angle E_dihed E_coul E_long E_vdwl Enthalpy Press
60000       281.9370366963     10608.5755216860         0.8375876069       188.0084222489      -653.2327309550       277.7267324713       337.0349109601        10.5149939637      2274.1994547571     -3120.7345567685      -431.9742663386       418.8288065518      1491.9050978137
Averages over the last 26 of 51 rows, steps 85000 to 110000:
Temp Volume Density TotEng PotEng E_bond E_angle E_dihed E_coul E_long E_vdwl Enthalpy Press
296.739 11132.5 0.798394 282.439 -602.968 278.63 325.837 11.0486 2319.93 -3120.52 -417.888 284.833 13.5753
Loop time of 62.5205 on 64 procs for 50000 steps with 1002 atoms

unfix anneal
undump anneal

# RETURN TO LESS FREQUENT NEIGHBOR BUILDS
neigh_modify every 1 delay 10 check yes one 10000 # More relaxed rebuild criteria can be used

#===========================================================
# RUN EQUILIBRIUM SIM
#===========================================================

# UPDATE RUN PARAMETERS AND CREATE FIX
fix equil all npt temp 298.0 298.0 100.0 iso 1.0 1.0 1000.0

# CREATE COORDINATE DUMPS FOR EQUILIBRIUM
dump equil all custom 1000 equil.lammpstrj id type x y z mol
dump_modify equil sort id format float %20.10g

# RUN EQUIL
run		100000
PPPM initialization ...
  G vector (1/distance) = 0.186514
  grid = 8 8 8
  stencil order = 5
  estimated absolute RMS force accuracy = 0.00729432
  estimated relative force accuracy = 2.19666e-05
  3d grid and FFT values/proc = 343 8
Step Temp Volume Density TotEng PotEng E_bond E_angle E_dihed E_coul E_long E_vdwl Enthalpy Press
110000       288.8923221803     11172.4127754791         0.7953171407       297.3878098253      -564.6064606349       297.4027031189       335.0859117373         8.6594534306      2318.1196565734     -3101.8543855478      -422.0197999473       752.3023382034      2791.9455535889
Averages over the last 51 of 101 rows, steps 160000 to 210000:
Temp Volume Density TotEng PotEng E_bond E_angle E_dihed E_coul E_long E_vdwl Enthalpy Press
298.967 11487.5 0.773827 297.54 -594.516 265.603 309.326 11.6315 2326.27 -3102.75 -404.595 298.04 10.6017
Loop time of 59.7669 on 64 procs for 100000 steps with 1002 atoms

unfix equil
undump equil

# WRITE RESTART FILES, CLEANUP, AND EXIT
write_restart   md-9.end.restart
PPPM initialization ...
  G vector (1/distance) = 0.186605
  grid = 8 8 8
  stencil order = 5
  estimated absolute RMS force accuracy = 0.00726209
  estimated relative force accuracy = 2.18696e-05
  3d grid and FFT values/proc = 343 8
write_data      md-9.end.data pair ii
PPPM initialization ...
  G vector (1/distance) = 0.186605
  grid = 8 8 8
  stencil order = 5
  estimated absolute RMS force accuracy = 0.00726209
  estimated relative force accuracy = 2.18696e-05
  3d grid and FFT values/proc = 343 8
unfix		averages
