#===========================================================
# GENERAL PROCEDURES
#===========================================================
units		real	# g/mol, angstroms, fs, kcal/mol, K, atm, charge*angstrom
dimension	3	# 3 dimensional simulation
newton		on	# use Newton's 3rd law
boundary	p p p	# periodic boundary conditions
atom_style	full    # molecular + charge

#===========================================================
# FORCE FIELD DEFINITION
#===========================================================
special_bonds  lj   0.0 0.0 0.0  coul 0.0 0.0 0.0     # NO     1-4 LJ/COUL interactions
pair_style     hybrid lj/cut/coul/long 14.0 14.0 # outer_LJ outer_Coul (cutoff values, see LAMMPS Doc)
kspace_style   pppm 0.0001          # long-range electrostatics sum method
bond_style     harmonic             # parameters needed: k_bond, r0
angle_style    harmonic             # parameters needed: k_theta, theta0
dihedral_style hybrid opls            # parameters needed: V1, V2, V3, V4
pair_modify    shift yes mix arithmetic       # using Lorenz-Berthelot mixing rules

#===========================================================
# SETUP SIMULATIONS
#===========================================================

# READ IN COEFFICIENTS/COORDINATES/TOPOLOGY
read_data md-7.data
  orthogonal box = (-11.0397 -11.0397 -11.0397) to (11.0397 11.0397 11.0397)
  reading atoms ...
  1002 atoms
  reading velocities ...
  1002 velocities
  scanning bonds ...
  scanning angles ...
  scanning dihedrals ...
  reading bonds ...
  835 bonds
  reading angles ...
  1169 angles
  reading dihedrals ...
  501 dihedrals
include md-7.in.settings
     # Non-bonded interactions (pair-wise)
     pair_coeff           1          1          lj/cut/coul/long     0.012538             2.455454
     pair_coeff           1          2          lj/cut/coul/long     0.002628             2.254269
     pair_coeff           1          3          lj/cut/coul/long     0.032584             3.108197
     pair_coeff           1          4          lj/cut/coul/long     0.043941             2.722123
     pair_coeff           2          2          lj/cut/coul/long     0.001000             1.873803
     pair_coeff           2          3          lj/cut/coul/long     0.004531             3.055486
     pair_coeff           2          4          lj/cut/coul/long     0.007036             2.613843
     pair_coeff           3          3          lj/cut/coul/long     0.198285             3.414293
     pair_coeff           3          4          lj/cut/coul/long     0.175461             3.207713
     pair_coeff           4          4          lj/cut/coul/long     0.195626             2.899776

     # Stretching interactions
     bond_coeff           1           366.904251           1.096103
     bond_coeff           2           612.219900           0.957501
     bond_coeff           3           368.709924           1.411527

     # Bending interactions
     angle_coeff          1           40.926667            108.205025
     angle_coeff          2           61.328715            112.232133
     angle_coeff          3           49.873049            108.741688

     # Dihedral interactions
     dihedral_coeff       1          opls                  0.105414            -0.205941             0.372587            -0.070860

# SET RUN PARAMETERS
timestep	1.0		# fs
run_style	verlet 		# Velocity-Verlet integrator
neigh_modify every 1 delay 0 check no one 10000 # More relaxed rebuild criteria can be used

#===========================================================
# RUN CONSTRAINED RELAXATION
#===========================================================

# SET OUTPUTS
thermo_style    custom step temp vol density etotal pe ebond eangle edihed ecoul elong evdwl enthalpy press
thermo_modify   format float %20.10f
thermo 1000

# DECLARE RELEVANT OUTPUT VARIABLES
variable        my_step equal   step
variable        my_temp equal   temp
variable        my_rho  equal   density
variable        my_pe   equal   pe
variable        my_ebon equal   ebond
variable        my_eang equal   eangle
variable        my_edih equal   edihed
variable        my_evdw equal   evdwl
variable        my_eel  equal   (ecoul+elong)
variable        my_ent  equal   enthalpy
variable        my_P    equal   press
variable        my_vol  equal   vol

fix  averages all ave/time 100 10 1000 v_my_temp v_my_rho v_my_vol v_my_pe v_my_edih v_my_evdw v_my_eel v_my_ent v_my_P file thermo.avg

# INITIALIZE VELOCITIES AND CREATE THE CONSTRAINED RELAXATION FIX
velocity        all create 100.0 21223 mom yes rot yes

fix relax all nve/limit 0.01
run             10000
PPPM initialization ...
  G vector (1/distance) = 0.187274
  grid = 8 8 8
  stencil order = 5
  estimated absolute RMS force accuracy = 0.00702905
  estimated relative force accuracy = 2.11678e-05
  3d grid and FFT values/proc = 343 8
  update every 1 steps, delay 0 steps, check no
Step Temp Volume Density TotEng PotEng E_bond E_angle E_dihed E_coul E_long E_vdwl Enthalpy Press
0       100.0000000000     10763.6412960009         0.8255209496      -315.5678389355      -613.9469249405       276.4060517172       312.6446459437         7.2262076179      2307.1170139681     -3115.4938159142      -401.8470282734      -329.4152848958       -88.2134024333
Averages over the last 6 of 11 rows, steps 5000 to 10000:
Temp Volume Density TotEng PotEng E_bond E_angle E_dihed E_coul E_long E_vdwl Enthalpy Press
12.3377 10763.6 0.825521 -1516.29 -1553.1 7.92848 17.3282 -37.356 2057.74 -3118.29 -480.463 -1919.67 -2569.68
Loop time of 12.528 on 64 procs for 10000 steps with 1002 atoms

unfix relax

#===========================================================
# RUN RAMPED ANNEAL
#===========================================================

# REINITIALIZE THE VELOCITIES AND CREATE THE ANNEALING FIX
velocity        all create 100.0 21223 mom yes rot yes

fix mom all momentum 1000 linear 1 1 1 angular # Zero out system linear and angular momentum every ps
fix anneal all npt temp 100.0 298.0 100.0 iso 1.0 1.0 1000.0

# CREATE COORDINATE DUMPS FOR ANNEAL
dump anneal all custom 1000 anneal.lammpstrj id type x y z mol
dump_modify anneal sort id format float %20.10g

# RUN RAMPED ANNEAL
run 50000
PPPM initialization ...
  G vector (1/distance) = 0.187274
  grid = 8 8 8
  stencil order = 5
  estimated absolute RMS force accuracy = 0.00702905
  estimated relative force accuracy = 2.11678e-05
  3d grid and FFT values/proc = 343 8
Step Temp Volume Density TotEng PotEng E_bond E_angle E_dihed E_coul E_long E_vdwl Enthalpy Press
10000       100.0000000000     10763.6412960009         0.8255209496     -1262.7841577867     -1561.1632437917         7.7734469678        17.5249266082       -37.7736929962      2058.0057985186     -3118.2252791719      -488.4684437181     -1474.0707859543     -1345.9747315746
Averages over the last 26 of 51 rows, steps 35000 to 60000:
Temp Volume Density TotEng PotEng E_bond E_angle E_dihed E_coul E_long E_vdwl Enthalpy Press
247.619 10569.1 0.841319 -56.6115 -795.454 218.232 271.467 4.5068 2279.76 -3116.35 -453.064 -86.4544 -193.552
Loop time of 67.0463 on 64 procs for 50000 steps with 1002 atoms

unfix anneal

# RUN EQUILIBRATION PHASE AT FINAL TEMP
fix anneal all npt temp 298.0 298.0 100.0 iso 1.0 1.0 1000.0
run 50000
PPPM initialization ...
  G vector (1/distance) = 0.186809
  grid = 8 8 8
  stencil order = 5
  estimated absolute RMS force accuracy = 0.0071904
  estimated relative force accuracy = 2.16537e-05
  3d grid and FFT values/proc = 343 8
Step Temp Volume Density TotEng PotEng E_bond E_angle E_dihed E_coul E_long E_vdwl Enthalpy Press
60000       291.3591142053     11012.1989173188         0.8068880203       257.2927497017      -612.0619122563       279.8246134068       306.2481911555        13.6184695401      2315.2676205858     -3108.4510992656      -418.5697076790       203.7040671767      -333.6745958064
Averages over the last 26 of 51 rows, steps 85000 to 110000:
Temp Volume Density TotEng PotEng E_bond E_angle E_dihed E_coul E_long E_vdwl Enthalpy Press
295.813 11396.2 0.780126 314.162 -568.481 268.901 311.692 13.2238 2362.44 -3107.18 -417.559 287.61 -148.222
Loop time of 58.7425 on 64 procs for 50000 steps with 1002 atoms

unfix anneal
undump anneal

# RETURN TO LESS FREQUENT NEIGHBOR BUILDS
neigh_modify every 1 delay 10 check yes one 10000 # More relaxed rebuild criteria can be used

#===========================================================
# RUN EQUILIBRIUM SIM
#===========================================================

# UPDATE RUN PARAMETERS AND CREATE FIX
fix equil all npt temp 298.0 298.0 100.0 iso 1.0 1.0 1000.0

# CREATE COORDINATE DUMPS FOR EQUILIBRIUM
dump equil all custom 1000 equil.lammpstrj id type x y z mol
dump_modify equil sort id format float %20.10g

# RUN EQUIL
run		100000
PPPM initialization ...
  G vector (1/distance) = 0.185793
  grid = 8 8 8
  stencil order = 5
  estimated absolute RMS force accuracy = 0.00755401
  estimated relative force accuracy = 2.27487e-05
  3d grid and FFT values/proc = 343 8
Step Temp Volume Density TotEng PotEng E_bond E_angle E_dihed E_coul E_long E_vdwl Enthalpy Press
110000       313.0965859453     11573.1729831266         0.7677765982       345.8933368078      -588.3213946487       267.1397294977       315.2382906516        10.8336551957      2325.4017619378     -3092.2032775286      -414.7315544029        75.9541580739     -1599.3281755288
Averages over the last 51 of 101 rows, steps 160000 to 210000:
Temp Volume Density TotEng PotEng E_bond E_angle E_dihed E_coul E_long E_vdwl Enthalpy Press
298.78 11262.1 0.789351 319.812 -571.685 265.605 319.708 11.2186 2344.9 -3090.64 -422.476 336.938 114.939
Loop time of 58.7133 on 64 procs for 100000 steps with 1002 atoms

unfix equil
undump equil

# WRITE RESTART FILES, CLEANUP, AND EXIT
write_restart   md-7.end.restart
PPPM initialization ...
  G vector (1/distance) = 0.186275
  grid = 8 8 8
  stencil order = 5
  estimated absolute RMS force accuracy = 0.00737937
  estimated relative force accuracy = 2.22228e-05
  3d grid and FFT values/proc = 343 8
write_data      md-7.end.data pair ii
PPPM initialization ...
  G vector (1/distance) = 0.186275
  grid = 8 8 8
  stencil order = 5
  estimated absolute RMS force accuracy = 0.00737937
  estimated relative force accuracy = 2.22228e-05
  3d grid and FFT values/proc = 343 8
unfix		averages
