#===========================================================
# GENERAL PROCEDURES
#===========================================================
units		real	# g/mol, angstroms, fs, kcal/mol, K, atm, charge*angstrom
dimension	3	# 3 dimensional simulation
newton		on	# use Newton's 3rd law
boundary	p p p	# periodic boundary conditions
atom_style	full    # molecular + charge

#===========================================================
# FORCE FIELD DEFINITION
#===========================================================
special_bonds  lj   0.0 0.0 0.0  coul 0.0 0.0 0.0     # NO     1-4 LJ/COUL interactions
pair_style     hybrid lj/cut/coul/long 14.0 14.0 # outer_LJ outer_Coul (cutoff values, see LAMMPS Doc)
kspace_style   pppm 0.0001          # long-range electrostatics sum method
bond_style     harmonic             # parameters needed: k_bond, r0
angle_style    harmonic             # parameters needed: k_theta, theta0
dihedral_style hybrid opls            # parameters needed: V1, V2, V3, V4
pair_modify    shift yes mix arithmetic       # using Lorenz-Berthelot mixing rules

#===========================================================
# SETUP SIMULATIONS
#===========================================================

# READ IN COEFFICIENTS/COORDINATES/TOPOLOGY
read_data md-1.data
  orthogonal box = (-22.3237 -22.3237 -22.3237) to (22.3237 22.3237 22.3237)
  reading atoms ...
  1002 atoms
  scanning bonds ...
  scanning angles ...
  scanning dihedrals ...
  reading bonds ...
  835 bonds
  reading angles ...
  1169 angles
  reading dihedrals ...
  501 dihedrals
include md-1.in.settings
     # Non-bonded interactions (pair-wise)
     pair_coeff           1          1          lj/cut/coul/long      0.044000             1.542680
     pair_coeff           1          2          lj/cut/coul/long      0.044000             1.542680
     pair_coeff           1          3          lj/cut/coul/long      0.067971             1.800595
     pair_coeff           1          4          lj/cut/coul/long      0.051381             1.706784
     pair_coeff           2          2          lj/cut/coul/long      0.044000             1.542680
     pair_coeff           2          3          lj/cut/coul/long      0.067971             1.800595
     pair_coeff           2          4          lj/cut/coul/long      0.051381             1.706784
     pair_coeff           3          3          lj/cut/coul/long      0.105000             2.058511
     pair_coeff           3          4          lj/cut/coul/long      0.079373             1.964699
     pair_coeff           4          4          lj/cut/coul/long      0.060000             1.870887

     # Stretching interactions
     bond_coeff           1           366.904251           1.096103
     bond_coeff           2           612.219900           0.957501
     bond_coeff           3           368.709924           1.411527

     # Bending interactions
     angle_coeff          1           40.926667            108.205025
     angle_coeff          2           61.328715            112.232133
     angle_coeff          3           49.873049            108.741688

     # Dihedral interactions
     dihedral_coeff       1          opls                  0.105414            -0.205941             0.372587            -0.070860

# SET RUN PARAMETERS
timestep	1.0		# fs
run_style	verlet 		# Velocity-Verlet integrator
neigh_modify every 1 delay 0 check no one 10000 # More relaxed rebuild criteria can be used

# Setting up fixes to scale the charges by 0.0
group charge_1 type 1
501 atoms in group charge_1
group charge_2 type 2
167 atoms in group charge_2
group charge_3 type 3
167 atoms in group charge_3
group charge_4 type 4
167 atoms in group charge_4
variable charge_1 equal 0.0
variable charge_2 equal 0.0
variable charge_3 equal 0.0
variable charge_4 equal -0.0
fix 1 charge_1 adapt 0 atom charge v_charge_1 reset yes
fix 2 charge_2 adapt 0 atom charge v_charge_2 reset yes
fix 3 charge_3 adapt 0 atom charge v_charge_3 reset yes
fix 4 charge_4 adapt 0 atom charge v_charge_4 reset yes

#===========================================================
# RUN CONSTRAINED RELAXATION
#===========================================================

# SET OUTPUTS
thermo_style    custom step temp vol density etotal pe ebond eangle edihed ecoul elong evdwl enthalpy press
thermo_modify   format float %20.10f
thermo 1000

# DECLARE RELEVANT OUTPUT VARIABLES
variable        my_step equal   step
variable        my_temp equal   temp
variable        my_rho  equal   density
variable        my_pe   equal   pe
variable        my_ebon equal   ebond
variable        my_eang equal   eangle
variable        my_edih equal   edihed
variable        my_evdw equal   evdwl
variable        my_eel  equal   (ecoul+elong)
variable        my_ent  equal   enthalpy
variable        my_P    equal   press
variable        my_vol  equal   vol

fix  averages all ave/time 100 10 1000 v_my_temp v_my_rho v_my_vol v_my_pe v_my_edih v_my_evdw v_my_eel v_my_ent v_my_P file thermo.avg

# INITIALIZE VELOCITIES AND CREATE THE CONSTRAINED RELAXATION FIX
velocity        all create 10.0 83904 mom yes rot yes

fix relax all nve/limit 0.01
run             10000
PPPM initialization ...
  G vector (1/distance) = 0.156228
  grid = 10 10 10
  stencil order = 5
  estimated absolute RMS force accuracy = 0.0197678
  estimated relative force accuracy = 5.95301e-05
  3d grid and FFT values/proc = 512 40
  update every 1 steps, delay 0 steps, check no
Step Temp Volume Density TotEng PotEng E_bond E_angle E_dihed E_coul E_long E_vdwl Enthalpy Press
0        10.0000000000     88999.8354552273         0.0998385147       251.0773492489       221.2394406484       175.0902248725        91.9155565822       -43.5482769035         0.0000000000         0.0000000000        -2.2180639028     -3338.2373078670     -2765.3266516264
Averages over the last 6 of 11 rows, steps 5000 to 10000:
Temp Volume Density TotEng PotEng E_bond E_angle E_dihed E_coul E_long E_vdwl Enthalpy Press
13.514 88999.8 0.0998385 -109.291 -149.614 6.16773 12.7783 -39.945 0 0 -128.615 -299.377 -146.448
Loop time of 3.87639 on 64 procs for 10000 steps with 1002 atoms

unfix relax

#===========================================================
# RESHAPE BOX FOR CONSTANT DENSITY NVT
#===========================================================
fix dynamics all nvt temp 10.0 10.0 100.0
velocity all create 10.0 83904 mom yes rot yes
fix mom all momentum 100 linear 1 1 1 angular

fix reshape  all deform 1 x final -11.611702913823104 11.611702913823104 y final -11.611702913823104 11.611702913823104 z final -11.611702913823104 11.611702913823104 units box
run             10000
PPPM initialization ...
  G vector (1/distance) = 0.156228
  grid = 10 10 10
  stencil order = 5
  estimated absolute RMS force accuracy = 0.0197678
  estimated relative force accuracy = 5.95301e-05
  3d grid and FFT values/proc = 512 40
Step Temp Volume Density TotEng PotEng E_bond E_angle E_dihed E_coul E_long E_vdwl Enthalpy Press
10000        10.0000000000     88999.8354552273         0.0998385147      -161.1043958849      -190.9423044854         3.0585485869        13.2398239537       -39.5105880552         0.0000000000         0.0000000000      -167.7300889708      -150.5329107065         8.1446216071
Averages over the last 6 of 11 rows, steps 15000 to 20000:
Temp Volume Density TotEng PotEng E_bond E_angle E_dihed E_coul E_long E_vdwl Enthalpy Press
10.2235 24491 0.420911 -252.23 -282.735 1.88973 11.9395 -39.4233 0 0 -257.141 -252.173 -14.441
Loop time of 8.75371 on 64 procs for 10000 steps with 1002 atoms

unfix dynamics
unfix reshape
unfix mom

#===========================================================
# RUN RAMPED ANNEAL
#===========================================================

# REINITIALIZE THE VELOCITIES AND CREATE THE ANNEALING FIX
velocity        all create 10.0 83904 mom yes rot yes

fix mom all momentum 1000 linear 1 1 1 angular # Zero out system linear and angular momentum every ps
fix anneal all nvt temp 10.0 298.0 100.0

# CREATE COORDINATE DUMPS FOR ANNEAL
dump anneal all custom 1000 anneal.lammpstrj id type x y z mol
dump_modify anneal sort id format float %20.10g

# RUN RAMPED ANNEAL
run 50000
PPPM initialization ...
  G vector (1/distance) = 0.184168
  grid = 8 8 8
  stencil order = 5
  estimated absolute RMS force accuracy = 0.00816917
  estimated relative force accuracy = 2.46012e-05
  3d grid and FFT values/proc = 343 8
Step Temp Volume Density TotEng PotEng E_bond E_angle E_dihed E_coul E_long E_vdwl Enthalpy Press
20000        10.0000000000     12525.0000000000         0.7094300506      -308.4223335724      -338.2602421729         0.9202397295        11.0076048283       -39.6592954104         0.0000000000         0.0000000000      -310.5287913203      -298.2112985041        55.9005580954
Averages over the last 26 of 51 rows, steps 45000 to 70000:
Temp Volume Density TotEng PotEng E_bond E_angle E_dihed E_coul E_long E_vdwl Enthalpy Press
225.536 12525 0.70943 1003.21 330.26 176.095 235.453 4.78654 0 0 -86.0746 1078.68 413.144
Loop time of 63.9673 on 64 procs for 50000 steps with 1002 atoms

unfix anneal

# RUN EQUILIBRATION PHASE AT FINAL TEMP
fix anneal all nvt temp 298.0 298.0 100.0
run 50000
PPPM initialization ...
  G vector (1/distance) = 0.184168
  grid = 8 8 8
  stencil order = 5
  estimated absolute RMS force accuracy = 0.00816917
  estimated relative force accuracy = 2.46012e-05
  3d grid and FFT values/proc = 343 8
Step Temp Volume Density TotEng PotEng E_bond E_angle E_dihed E_coul E_long E_vdwl Enthalpy Press
70000       289.2094360756     12525.0000000000         0.7094300506      1344.4610275691       481.5205555665       223.9275615633       316.4392633687        16.1954156221         0.0000000000         0.0000000000       -75.0416849876      1695.4646890743      1921.5780222440
Averages over the last 26 of 51 rows, steps 95000 to 120000:
Temp Volume Density TotEng PotEng E_bond E_angle E_dihed E_coul E_long E_vdwl Enthalpy Press
297.505 12525 0.70943 1393.39 505.695 253.284 320.891 12.6447 0 0 -81.1252 1567.92 955.482
Loop time of 62.069 on 64 procs for 50000 steps with 1002 atoms

unfix anneal
undump anneal

# RETURN TO LESS FREQUENT NEIGHBOR BUILDS
neigh_modify every 1 delay 10 check yes one 10000 # More relaxed rebuild criteria can be used

#===========================================================
# RUN EQUILIBRIUM SIM
#===========================================================

# UPDATE RUN PARAMETERS AND CREATE FIX
fix equil all nvt temp 298.0 298.0 100.0

# CREATE COORDINATE DUMPS FOR EQUILIBRIUM
dump equil all custom 1000 equil.lammpstrj id type x y z mol
dump_modify equil sort id format float %20.10g

# RUN EQUIL
run		100000
PPPM initialization ...
  G vector (1/distance) = 0.184168
  grid = 8 8 8
  stencil order = 5
  estimated absolute RMS force accuracy = 0.00816917
  estimated relative force accuracy = 2.46012e-05
  3d grid and FFT values/proc = 343 8
Step Temp Volume Density TotEng PotEng E_bond E_angle E_dihed E_coul E_long E_vdwl Enthalpy Press
120000       294.8177718639     12525.0000000000         0.7094300506      1381.3569601961       501.6823871284       257.4700306806       314.7600186917        10.5435484464         0.0000000000         0.0000000000       -81.0912106904      1556.4268729132       958.4244654051
Averages over the last 51 of 101 rows, steps 170000 to 220000:
Temp Volume Density TotEng PotEng E_bond E_angle E_dihed E_coul E_long E_vdwl Enthalpy Press
297.392 12525 0.70943 1401.07 513.713 261.367 320.39 12.3937 0 0 -80.4374 1511.31 603.503
Loop time of 51.6889 on 64 procs for 100000 steps with 1002 atoms

unfix equil
undump equil

# WRITE RESTART FILES, CLEANUP, AND EXIT
write_restart   md-1.end.restart
PPPM initialization ...
  G vector (1/distance) = 0.184168
  grid = 8 8 8
  stencil order = 5
  estimated absolute RMS force accuracy = 0.00816917
  estimated relative force accuracy = 2.46012e-05
  3d grid and FFT values/proc = 343 8
write_data      md-1.end.data pair ii
PPPM initialization ...
  G vector (1/distance) = 0.184168
  grid = 8 8 8
  stencil order = 5
  estimated absolute RMS force accuracy = 0.00816917
  estimated relative force accuracy = 2.46012e-05
  3d grid and FFT values/proc = 343 8
unfix		averages
