#===========================================================
# GENERAL PROCEDURES
#===========================================================
units		real	# g/mol, angstroms, fs, kcal/mol, K, atm, charge*angstrom
dimension	3	# 3 dimensional simulation
newton		on	# use Newton's 3rd law
boundary	p p p	# periodic boundary conditions
atom_style	full    # molecular + charge

#===========================================================
# FORCE FIELD DEFINITION
#===========================================================
special_bonds  lj   0.0 0.0 0.0  coul 0.0 0.0 0.0     # NO     1-4 LJ/COUL interactions
pair_style     hybrid lj/cut/coul/long 14.0 14.0 # outer_LJ outer_Coul (cutoff values, see LAMMPS Doc)
kspace_style   pppm 0.0001          # long-range electrostatics sum method
bond_style     harmonic             # parameters needed: k_bond, r0
angle_style    harmonic             # parameters needed: k_theta, theta0
dihedral_style hybrid opls            # parameters needed: V1, V2, V3, V4
pair_modify    shift yes mix arithmetic       # using Lorenz-Berthelot mixing rules

#===========================================================
# SETUP SIMULATIONS
#===========================================================

# READ IN COEFFICIENTS/COORDINATES/TOPOLOGY
read_data md-8.data
  orthogonal box = (-11.2213 -11.2213 -11.2213) to (11.2213 11.2213 11.2213)
  reading atoms ...
  1002 atoms
  reading velocities ...
  1002 velocities
  scanning bonds ...
  scanning angles ...
  scanning dihedrals ...
  reading bonds ...
  835 bonds
  reading angles ...
  1169 angles
  reading dihedrals ...
  501 dihedrals
include md-8.in.settings
     # Non-bonded interactions (pair-wise)
     pair_coeff           1          1          lj/cut/coul/long     0.011550             2.469209
     pair_coeff           1          2          lj/cut/coul/long     0.002327             2.253885
     pair_coeff           1          3          lj/cut/coul/long     0.031692             3.120120
     pair_coeff           1          4          lj/cut/coul/long     0.042509             2.727257
     pair_coeff           2          2          lj/cut/coul/long     0.001000             1.813294
     pair_coeff           2          3          lj/cut/coul/long     0.004120             3.063783
     pair_coeff           2          4          lj/cut/coul/long     0.006452             2.609759
     pair_coeff           3          3          lj/cut/coul/long     0.201778             3.426552
     pair_coeff           3          4          lj/cut/coul/long     0.176417             3.216539
     pair_coeff           4          4          lj/cut/coul/long     0.195994             2.901222

     # Stretching interactions
     bond_coeff           1           366.904251           1.096103
     bond_coeff           2           612.219900           0.957501
     bond_coeff           3           368.709924           1.411527

     # Bending interactions
     angle_coeff          1           40.926667            108.205025
     angle_coeff          2           61.328715            112.232133
     angle_coeff          3           49.873049            108.741688

     # Dihedral interactions
     dihedral_coeff       1          opls                  0.105414            -0.205941             0.372587            -0.070860

# SET RUN PARAMETERS
timestep	1.0		# fs
run_style	verlet 		# Velocity-Verlet integrator
neigh_modify every 1 delay 0 check no one 10000 # More relaxed rebuild criteria can be used

#===========================================================
# RUN CONSTRAINED RELAXATION
#===========================================================

# SET OUTPUTS
thermo_style    custom step temp vol density etotal pe ebond eangle edihed ecoul elong evdwl enthalpy press
thermo_modify   format float %20.10f
thermo 1000

# DECLARE RELEVANT OUTPUT VARIABLES
variable        my_step equal   step
variable        my_temp equal   temp
variable        my_rho  equal   density
variable        my_pe   equal   pe
variable        my_ebon equal   ebond
variable        my_eang equal   eangle
variable        my_edih equal   edihed
variable        my_evdw equal   evdwl
variable        my_eel  equal   (ecoul+elong)
variable        my_ent  equal   enthalpy
variable        my_P    equal   press
variable        my_vol  equal   vol

fix  averages all ave/time 100 10 1000 v_my_temp v_my_rho v_my_vol v_my_pe v_my_edih v_my_evdw v_my_eel v_my_ent v_my_P file thermo.avg

# INITIALIZE VELOCITIES AND CREATE THE CONSTRAINED RELAXATION FIX
velocity        all create 100.0 67201 mom yes rot yes

fix relax all nve/limit 0.01
run             10000
PPPM initialization ...
  G vector (1/distance) = 0.186275
  grid = 8 8 8
  stencil order = 5
  estimated absolute RMS force accuracy = 0.00737937
  estimated relative force accuracy = 2.22228e-05
  3d grid and FFT values/proc = 343 8
  update every 1 steps, delay 0 steps, check no
Step Temp Volume Density TotEng PotEng E_bond E_angle E_dihed E_coul E_long E_vdwl Enthalpy Press
0       100.0000000000     11303.5949692712         0.7860872057      -235.4949551211      -533.8740411261       309.5169281281       307.1262762732         9.8610774414      2369.6165955942     -3096.6142278851      -433.3806906780      -626.4686467977     -2371.6743582762
Averages over the last 6 of 11 rows, steps 5000 to 10000:
Temp Volume Density TotEng PotEng E_bond E_angle E_dihed E_coul E_long E_vdwl Enthalpy Press
13.7106 11303.6 0.786087 -1510.49 -1551.39 8.1624 16.6593 -37.1891 2038.5 -3100.21 -477.316 -1863.84 -2143.46
Loop time of 12.4255 on 64 procs for 10000 steps with 1002 atoms

unfix relax

#===========================================================
# RUN RAMPED ANNEAL
#===========================================================

# REINITIALIZE THE VELOCITIES AND CREATE THE ANNEALING FIX
velocity        all create 100.0 67201 mom yes rot yes

fix mom all momentum 1000 linear 1 1 1 angular # Zero out system linear and angular momentum every ps
fix anneal all npt temp 100.0 298.0 100.0 iso 1.0 1.0 1000.0

# CREATE COORDINATE DUMPS FOR ANNEAL
dump anneal all custom 1000 anneal.lammpstrj id type x y z mol
dump_modify anneal sort id format float %20.10g

# RUN RAMPED ANNEAL
run 50000
PPPM initialization ...
  G vector (1/distance) = 0.186275
  grid = 8 8 8
  stencil order = 5
  estimated absolute RMS force accuracy = 0.00737937
  estimated relative force accuracy = 2.22228e-05
  3d grid and FFT values/proc = 343 8
Step Temp Volume Density TotEng PotEng E_bond E_angle E_dihed E_coul E_long E_vdwl Enthalpy Press
10000       100.0000000000     11303.5949692712         0.7860872057     -1263.8923817254     -1562.2714677304         7.9954542775        15.9028853354       -36.7213874210      2027.0869910439     -3099.3514725140      -477.1839384522     -1391.6539605480      -775.0108688056
Averages over the last 26 of 51 rows, steps 35000 to 60000:
Temp Volume Density TotEng PotEng E_bond E_angle E_dihed E_coul E_long E_vdwl Enthalpy Press
249.575 10535.3 0.844214 -63.2781 -807.959 217.974 266.394 6.45197 2252.95 -3099.49 -452.237 -37.2713 160.81
Loop time of 68.4115 on 64 procs for 50000 steps with 1002 atoms

unfix anneal

# RUN EQUILIBRATION PHASE AT FINAL TEMP
fix anneal all npt temp 298.0 298.0 100.0 iso 1.0 1.0 1000.0
run 50000
PPPM initialization ...
  G vector (1/distance) = 0.186623
  grid = 8 8 8
  stencil order = 5
  estimated absolute RMS force accuracy = 0.00725571
  estimated relative force accuracy = 2.18503e-05
  3d grid and FFT values/proc = 343 8
Step Temp Volume Density TotEng PotEng E_bond E_angle E_dihed E_coul E_long E_vdwl Enthalpy Press
60000       306.5482345915     11112.8665409316         0.7995787001       361.0028720494      -553.6729484892       291.7155223631       339.9638268480         5.6503727863      2327.1515076812     -3104.4099590441      -413.7442191237       401.9379095547       252.5766533200
Averages over the last 26 of 51 rows, steps 85000 to 110000:
Temp Volume Density TotEng PotEng E_bond E_angle E_dihed E_coul E_long E_vdwl Enthalpy Press
297.133 11299.5 0.786644 295.368 -591.213 268.595 322.239 12.4043 2328.28 -3104.83 -417.907 260.442 -203.85
Loop time of 62.9993 on 64 procs for 50000 steps with 1002 atoms

unfix anneal
undump anneal

# RETURN TO LESS FREQUENT NEIGHBOR BUILDS
neigh_modify every 1 delay 10 check yes one 10000 # More relaxed rebuild criteria can be used

#===========================================================
# RUN EQUILIBRIUM SIM
#===========================================================

# UPDATE RUN PARAMETERS AND CREATE FIX
fix equil all npt temp 298.0 298.0 100.0 iso 1.0 1.0 1000.0

# CREATE COORDINATE DUMPS FOR EQUILIBRIUM
dump equil all custom 1000 equil.lammpstrj id type x y z mol
dump_modify equil sort id format float %20.10g

# RUN EQUIL
run		100000
PPPM initialization ...
  G vector (1/distance) = 0.186196
  grid = 8 8 8
  stencil order = 5
  estimated absolute RMS force accuracy = 0.00740775
  estimated relative force accuracy = 2.23082e-05
  3d grid and FFT values/proc = 343 8
Step Temp Volume Density TotEng PotEng E_bond E_angle E_dihed E_coul E_long E_vdwl Enthalpy Press
110000       295.2655093522     11347.3739464786         0.7830544252       322.9826699069      -558.0278581861       266.3695303570       342.6800995660         7.6993607517      2335.1643266178     -3096.7464487466      -413.1947267320       264.3650632688      -354.2067439768
Averages over the last 51 of 101 rows, steps 160000 to 210000:
Temp Volume Density TotEng PotEng E_bond E_angle E_dihed E_coul E_long E_vdwl Enthalpy Press
300.269 11180.2 0.795008 291.911 -604.028 271.361 316.503 10.2663 2318.36 -3097.52 -422.992 280.302 -63.8256
Loop time of 63.5491 on 64 procs for 100000 steps with 1002 atoms

unfix equil
undump equil

# WRITE RESTART FILES, CLEANUP, AND EXIT
write_restart   md-8.end.restart
PPPM initialization ...
  G vector (1/distance) = 0.187402
  grid = 8 8 8
  stencil order = 5
  estimated absolute RMS force accuracy = 0.00698511
  estimated relative force accuracy = 2.10354e-05
  3d grid and FFT values/proc = 343 8
write_data      md-8.end.data pair ii
PPPM initialization ...
  G vector (1/distance) = 0.187402
  grid = 8 8 8
  stencil order = 5
  estimated absolute RMS force accuracy = 0.00698511
  estimated relative force accuracy = 2.10354e-05
  3d grid and FFT values/proc = 343 8
unfix		averages
