#===========================================================
# GENERAL PROCEDURES
#===========================================================
units		real	# g/mol, angstroms, fs, kcal/mol, K, atm, charge*angstrom
dimension	3	# 3 dimensional simulation
newton		on	# use Newton's 3rd law
boundary	p p p	# periodic boundary conditions
atom_style	full    # molecular + charge

#===========================================================
# FORCE FIELD DEFINITION
#===========================================================
special_bonds  lj   0.0 0.0 0.0  coul 0.0 0.0 0.0     # NO     1-4 LJ/COUL interactions
pair_style     hybrid lj/cut/coul/long 14.0 14.0 # outer_LJ outer_Coul (cutoff values, see LAMMPS Doc)
kspace_style   pppm 0.0001          # long-range electrostatics sum method
bond_style     harmonic             # parameters needed: k_bond, r0
angle_style    harmonic             # parameters needed: k_theta, theta0
dihedral_style hybrid opls            # parameters needed: V1, V2, V3, V4
pair_modify    shift yes mix arithmetic       # using Lorenz-Berthelot mixing rules

#===========================================================
# SETUP SIMULATIONS
#===========================================================

# READ IN COEFFICIENTS/COORDINATES/TOPOLOGY
read_data md-14.data
  orthogonal box = (-11.1888 -11.1888 -11.1888) to (11.1888 11.1888 11.1888)
  reading atoms ...
  1002 atoms
  reading velocities ...
  1002 velocities
  scanning bonds ...
  scanning angles ...
  scanning dihedrals ...
  reading bonds ...
  835 bonds
  reading angles ...
  1169 angles
  reading dihedrals ...
  501 dihedrals
include md-14.in.settings
     # Non-bonded interactions (pair-wise)
     pair_coeff           1          1          lj/cut/coul/long     0.009246             2.469569
     pair_coeff           1          2          lj/cut/coul/long     0.001989             2.248286
     pair_coeff           1          3          lj/cut/coul/long     0.028203             3.130589
     pair_coeff           1          4          lj/cut/coul/long     0.039129             2.730465
     pair_coeff           2          2          lj/cut/coul/long     0.001000             1.776798
     pair_coeff           2          3          lj/cut/coul/long     0.003854             3.073941
     pair_coeff           2          4          lj/cut/coul/long     0.006271             2.610820
     pair_coeff           3          3          lj/cut/coul/long     0.202951             3.439574
     pair_coeff           3          4          lj/cut/coul/long     0.181814             3.226837
     pair_coeff           4          4          lj/cut/coul/long     0.208254             2.905767

     # Stretching interactions
     bond_coeff           1           366.904251           1.096103
     bond_coeff           2           612.219900           0.957501
     bond_coeff           3           368.709924           1.411527

     # Bending interactions
     angle_coeff          1           40.926667            108.205025
     angle_coeff          2           61.328715            112.232133
     angle_coeff          3           49.873049            108.741688

     # Dihedral interactions
     dihedral_coeff       1          opls                  0.105414            -0.205941             0.372587            -0.070860

# SET RUN PARAMETERS
timestep	1.0		# fs
run_style	verlet 		# Velocity-Verlet integrator
neigh_modify every 1 delay 0 check no one 10000 # More relaxed rebuild criteria can be used

#===========================================================
# RUN CONSTRAINED RELAXATION
#===========================================================

# SET OUTPUTS
thermo_style    custom step temp vol density etotal pe ebond eangle edihed ecoul elong evdwl enthalpy press
thermo_modify   format float %20.10f
thermo 1000

# DECLARE RELEVANT OUTPUT VARIABLES
variable        my_step equal   step
variable        my_temp equal   temp
variable        my_rho  equal   density
variable        my_pe   equal   pe
variable        my_ebon equal   ebond
variable        my_eang equal   eangle
variable        my_edih equal   edihed
variable        my_evdw equal   evdwl
variable        my_eel  equal   (ecoul+elong)
variable        my_ent  equal   enthalpy
variable        my_P    equal   press
variable        my_vol  equal   vol

fix  averages all ave/time 100 10 1000 v_my_temp v_my_rho v_my_vol v_my_pe v_my_edih v_my_evdw v_my_eel v_my_ent v_my_P file thermo.avg

# INITIALIZE VELOCITIES AND CREATE THE CONSTRAINED RELAXATION FIX
velocity        all create 100.0 61144 mom yes rot yes

fix relax all nve/limit 0.01
run             10000
PPPM initialization ...
  G vector (1/distance) = 0.186453
  grid = 8 8 8
  stencil order = 5
  estimated absolute RMS force accuracy = 0.00731596
  estimated relative force accuracy = 2.20318e-05
  3d grid and FFT values/proc = 343 8
  update every 1 steps, delay 0 steps, check no
Step Temp Volume Density TotEng PotEng E_bond E_angle E_dihed E_coul E_long E_vdwl Enthalpy Press
0       100.0000000000     11205.7793576727         0.7929489864      -291.5394971382      -589.9185831432       271.5332383820       314.3871016871        13.6062331182      2326.0622825934     -3100.5031577968      -415.0042811272      -560.7605620214     -1647.3697289972
Averages over the last 6 of 11 rows, steps 5000 to 10000:
Temp Volume Density TotEng PotEng E_bond E_angle E_dihed E_coul E_long E_vdwl Enthalpy Press
12.4113 11205.8 0.792949 -1507.8 -1544.83 8.43705 16.7202 -37.1373 2024.17 -3104.24 -452.786 -1878.13 -2266.05
Loop time of 12.7531 on 64 procs for 10000 steps with 1002 atoms

unfix relax

#===========================================================
# RUN RAMPED ANNEAL
#===========================================================

# REINITIALIZE THE VELOCITIES AND CREATE THE ANNEALING FIX
velocity        all create 100.0 61144 mom yes rot yes

fix mom all momentum 1000 linear 1 1 1 angular # Zero out system linear and angular momentum every ps
fix anneal all npt temp 100.0 298.0 100.0 iso 1.0 1.0 1000.0

# CREATE COORDINATE DUMPS FOR ANNEAL
dump anneal all custom 1000 anneal.lammpstrj id type x y z mol
dump_modify anneal sort id format float %20.10g

# RUN RAMPED ANNEAL
run 50000
PPPM initialization ...
  G vector (1/distance) = 0.186453
  grid = 8 8 8
  stencil order = 5
  estimated absolute RMS force accuracy = 0.00731596
  estimated relative force accuracy = 2.20318e-05
  3d grid and FFT values/proc = 343 8
Step Temp Volume Density TotEng PotEng E_bond E_angle E_dihed E_coul E_long E_vdwl Enthalpy Press
10000       100.0000000000     11205.7793576727         0.7929489864     -1253.9161808428     -1552.2952668478         7.9717012502        16.8029439790       -37.3340616885      2015.6065977671     -3104.1374695503      -451.2049786053     -1419.0063523380     -1010.1904588858
Averages over the last 26 of 51 rows, steps 35000 to 60000:
Temp Volume Density TotEng PotEng E_bond E_angle E_dihed E_coul E_long E_vdwl Enthalpy Press
247.768 10561.8 0.842494 -57.237 -796.525 219.985 269.489 4.89677 2261.32 -3102.5 -449.719 -35.0712 154.024
Loop time of 69.2831 on 64 procs for 50000 steps with 1002 atoms

unfix anneal

# RUN EQUILIBRATION PHASE AT FINAL TEMP
fix anneal all npt temp 298.0 298.0 100.0 iso 1.0 1.0 1000.0
run 50000
PPPM initialization ...
  G vector (1/distance) = 0.18663
  grid = 8 8 8
  stencil order = 5
  estimated absolute RMS force accuracy = 0.00725301
  estimated relative force accuracy = 2.18422e-05
  3d grid and FFT values/proc = 343 8
Step Temp Volume Density TotEng PotEng E_bond E_angle E_dihed E_coul E_long E_vdwl Enthalpy Press
60000       302.6079437699     11108.7158138229         0.7998774595       322.9365216770      -579.9822951222       277.9531005051       326.1696691223         2.1952758756      2338.1233222617     -3104.6221791256      -419.8014837613       332.1643066879        56.9583921998
Averages over the last 26 of 51 rows, steps 85000 to 110000:
Temp Volume Density TotEng PotEng E_bond E_angle E_dihed E_coul E_long E_vdwl Enthalpy Press
301.049 11211.3 0.792918 304.482 -593.786 269.555 320.027 10.8685 2327.27 -3104.92 -416.592 408.138 641.553
Loop time of 63.4005 on 64 procs for 50000 steps with 1002 atoms

unfix anneal
undump anneal

# RETURN TO LESS FREQUENT NEIGHBOR BUILDS
neigh_modify every 1 delay 10 check yes one 10000 # More relaxed rebuild criteria can be used

#===========================================================
# RUN EQUILIBRIUM SIM
#===========================================================

# UPDATE RUN PARAMETERS AND CREATE FIX
fix equil all npt temp 298.0 298.0 100.0 iso 1.0 1.0 1000.0

# CREATE COORDINATE DUMPS FOR EQUILIBRIUM
dump equil all custom 1000 equil.lammpstrj id type x y z mol
dump_modify equil sort id format float %20.10g

# RUN EQUIL
run		100000
PPPM initialization ...
  G vector (1/distance) = 0.186334
  grid = 8 8 8
  stencil order = 5
  estimated absolute RMS force accuracy = 0.0073584
  estimated relative force accuracy = 2.21596e-05
  3d grid and FFT values/proc = 343 8
Step Temp Volume Density TotEng PotEng E_bond E_angle E_dihed E_coul E_long E_vdwl Enthalpy Press
110000       304.8653599700     11271.2434210869         0.7883434907       313.1999334894      -596.4545411351       270.2649794282       307.7795937293         5.8466390292      2340.5819365254     -3098.9781043534      -421.9495854939       371.9504955556       357.4080312831
Averages over the last 51 of 101 rows, steps 160000 to 210000:
Temp Volume Density TotEng PotEng E_bond E_angle E_dihed E_coul E_long E_vdwl Enthalpy Press
296.736 11233.9 0.791184 301.577 -583.822 270.383 321.047 11.706 2329.99 -3099.9 -417.051 349.263 296.212
Loop time of 61.6177 on 64 procs for 100000 steps with 1002 atoms

unfix equil
undump equil

# WRITE RESTART FILES, CLEANUP, AND EXIT
write_restart   md-14.end.restart
PPPM initialization ...
  G vector (1/distance) = 0.186222
  grid = 8 8 8
  stencil order = 5
  estimated absolute RMS force accuracy = 0.00739865
  estimated relative force accuracy = 2.22808e-05
  3d grid and FFT values/proc = 343 8
write_data      md-14.end.data pair ii
PPPM initialization ...
  G vector (1/distance) = 0.186222
  grid = 8 8 8
  stencil order = 5
  estimated absolute RMS force accuracy = 0.00739865
  estimated relative force accuracy = 2.22808e-05
  3d grid and FFT values/proc = 343 8
unfix		averages
