#===========================================================
# GENERAL PROCEDURES
#===========================================================
units		real	# g/mol, angstroms, fs, kcal/mol, K, atm, charge*angstrom
dimension	3	# 3 dimensional simulation
newton		on	# use Newton's 3rd law
boundary	p p p	# periodic boundary conditions
atom_style	full    # molecular + charge

#===========================================================
# FORCE FIELD DEFINITION
#===========================================================
special_bonds  lj   0.0 0.0 0.0  coul 0.0 0.0 0.0     # NO     1-4 LJ/COUL interactions
pair_style     hybrid lj/cut/coul/long 14.0 14.0 # outer_LJ outer_Coul (cutoff values, see LAMMPS Doc)
kspace_style   pppm 0.0001          # long-range electrostatics sum method
bond_style     harmonic             # parameters needed: k_bond, r0
angle_style    harmonic             # parameters needed: k_theta, theta0
dihedral_style hybrid opls            # parameters needed: V1, V2, V3, V4
pair_modify    shift yes mix arithmetic       # using Lorenz-Berthelot mixing rules

#===========================================================
# SETUP SIMULATIONS
#===========================================================

# READ IN COEFFICIENTS/COORDINATES/TOPOLOGY
read_data md-10.data
  orthogonal box = (-11.1611 -11.1611 -11.1611) to (11.1611 11.1611 11.1611)
  reading atoms ...
  1002 atoms
  reading velocities ...
  1002 velocities
  scanning bonds ...
  scanning angles ...
  scanning dihedrals ...
  reading bonds ...
  835 bonds
  reading angles ...
  1169 angles
  reading dihedrals ...
  501 dihedrals
include md-10.in.settings
     # Non-bonded interactions (pair-wise)
     pair_coeff           1          1          lj/cut/coul/long     0.011105             2.467637
     pair_coeff           1          2          lj/cut/coul/long     0.002176             2.246317
     pair_coeff           1          3          lj/cut/coul/long     0.030833             3.123433
     pair_coeff           1          4          lj/cut/coul/long     0.041875             2.729296
     pair_coeff           2          2          lj/cut/coul/long     0.001000             1.774041
     pair_coeff           2          3          lj/cut/coul/long     0.003841             3.066333
     pair_coeff           2          4          lj/cut/coul/long     0.006107             2.609888
     pair_coeff           3          3          lj/cut/coul/long     0.200406             3.431001
     pair_coeff           3          4          lj/cut/coul/long     0.177085             3.220692
     pair_coeff           4          4          lj/cut/coul/long     0.198848             2.904910

     # Stretching interactions
     bond_coeff           1           366.904251           1.096103
     bond_coeff           2           612.219900           0.957501
     bond_coeff           3           368.709924           1.411527

     # Bending interactions
     angle_coeff          1           40.926667            108.205025
     angle_coeff          2           61.328715            112.232133
     angle_coeff          3           49.873049            108.741688

     # Dihedral interactions
     dihedral_coeff       1          opls                  0.105414            -0.205941             0.372587            -0.070860

# SET RUN PARAMETERS
timestep	1.0		# fs
run_style	verlet 		# Velocity-Verlet integrator
neigh_modify every 1 delay 0 check no one 10000 # More relaxed rebuild criteria can be used

#===========================================================
# RUN CONSTRAINED RELAXATION
#===========================================================

# SET OUTPUTS
thermo_style    custom step temp vol density etotal pe ebond eangle edihed ecoul elong evdwl enthalpy press
thermo_modify   format float %20.10f
thermo 1000

# DECLARE RELEVANT OUTPUT VARIABLES
variable        my_step equal   step
variable        my_temp equal   temp
variable        my_rho  equal   density
variable        my_pe   equal   pe
variable        my_ebon equal   ebond
variable        my_eang equal   eangle
variable        my_edih equal   edihed
variable        my_evdw equal   evdwl
variable        my_eel  equal   (ecoul+elong)
variable        my_ent  equal   enthalpy
variable        my_P    equal   press
variable        my_vol  equal   vol

fix  averages all ave/time 100 10 1000 v_my_temp v_my_rho v_my_vol v_my_pe v_my_edih v_my_evdw v_my_eel v_my_ent v_my_P file thermo.avg

# INITIALIZE VELOCITIES AND CREATE THE CONSTRAINED RELAXATION FIX
velocity        all create 100.0 97343 mom yes rot yes

fix relax all nve/limit 0.01
run             10000
PPPM initialization ...
  G vector (1/distance) = 0.186605
  grid = 8 8 8
  stencil order = 5
  estimated absolute RMS force accuracy = 0.00726209
  estimated relative force accuracy = 2.18696e-05
  3d grid and FFT values/proc = 343 8
  update every 1 steps, delay 0 steps, check no
Step Temp Volume Density TotEng PotEng E_bond E_angle E_dihed E_coul E_long E_vdwl Enthalpy Press
0       100.0000000000     11122.7053420714         0.7988714175      -296.3011100069      -594.6801960119       245.0019006903       322.3151090183        11.6461319791      2333.1190662317     -3103.6008230779      -403.1615808534      -652.9574688231     -2198.6882212189
Averages over the last 6 of 11 rows, steps 5000 to 10000:
Temp Volume Density TotEng PotEng E_bond E_angle E_dihed E_coul E_long E_vdwl Enthalpy Press
13.3373 11122.7 0.798871 -1516.02 -1555.82 8.42664 16.8162 -37.5148 2032.1 -3106.11 -469.537 -1858 -2108.18
Loop time of 12.8698 on 64 procs for 10000 steps with 1002 atoms

unfix relax

#===========================================================
# RUN RAMPED ANNEAL
#===========================================================

# REINITIALIZE THE VELOCITIES AND CREATE THE ANNEALING FIX
velocity        all create 100.0 97343 mom yes rot yes

fix mom all momentum 1000 linear 1 1 1 angular # Zero out system linear and angular momentum every ps
fix anneal all npt temp 100.0 298.0 100.0 iso 1.0 1.0 1000.0

# CREATE COORDINATE DUMPS FOR ANNEAL
dump anneal all custom 1000 anneal.lammpstrj id type x y z mol
dump_modify anneal sort id format float %20.10g

# RUN RAMPED ANNEAL
run 50000
PPPM initialization ...
  G vector (1/distance) = 0.186605
  grid = 8 8 8
  stencil order = 5
  estimated absolute RMS force accuracy = 0.00726209
  estimated relative force accuracy = 2.18696e-05
  3d grid and FFT values/proc = 343 8
Step Temp Volume Density TotEng PotEng E_bond E_angle E_dihed E_coul E_long E_vdwl Enthalpy Press
10000       100.0000000000     11122.7053420714         0.7988714175     -1270.9612159201     -1569.3403019251         8.3090477645        17.1382083571       -37.8303015131      2021.3966258855     -3105.8150747048      -472.5388077143     -1370.9545230563      -616.4311981727
Averages over the last 26 of 51 rows, steps 35000 to 60000:
Temp Volume Density TotEng PotEng E_bond E_angle E_dihed E_coul E_long E_vdwl Enthalpy Press
249.399 10659.3 0.834614 -63.9611 -808.116 216.423 268.742 5.47896 2248.67 -3105.02 -442.41 -55.4319 61.6153
Loop time of 65.9771 on 64 procs for 50000 steps with 1002 atoms

unfix anneal

# RUN EQUILIBRATION PHASE AT FINAL TEMP
fix anneal all npt temp 298.0 298.0 100.0 iso 1.0 1.0 1000.0
run 50000
PPPM initialization ...
  G vector (1/distance) = 0.186518
  grid = 8 8 8
  stencil order = 5
  estimated absolute RMS force accuracy = 0.00729276
  estimated relative force accuracy = 2.19619e-05
  3d grid and FFT values/proc = 343 8
Step Temp Volume Density TotEng PotEng E_bond E_angle E_dihed E_coul E_long E_vdwl Enthalpy Press
60000       296.4452965769     11169.9931309463         0.7954894224       236.6898969525      -647.8408694784       237.0476376723       331.9032027165        12.2571780371      2309.5219821045     -3103.5534083947      -435.0174616141      -378.1089573740     -3774.0204931906
Averages over the last 26 of 51 rows, steps 85000 to 110000:
Temp Volume Density TotEng PotEng E_bond E_angle E_dihed E_coul E_long E_vdwl Enthalpy Press
297.493 11405.3 0.779423 300.795 -586.863 267.406 309.547 11.8355 2336.49 -3102.93 -409.207 272.111 -166.193
Loop time of 61.7166 on 64 procs for 50000 steps with 1002 atoms

unfix anneal
undump anneal

# RETURN TO LESS FREQUENT NEIGHBOR BUILDS
neigh_modify every 1 delay 10 check yes one 10000 # More relaxed rebuild criteria can be used

#===========================================================
# RUN EQUILIBRIUM SIM
#===========================================================

# UPDATE RUN PARAMETERS AND CREATE FIX
fix equil all npt temp 298.0 298.0 100.0 iso 1.0 1.0 1000.0

# CREATE COORDINATE DUMPS FOR EQUILIBRIUM
dump equil all custom 1000 equil.lammpstrj id type x y z mol
dump_modify equil sort id format float %20.10g

# RUN EQUIL
run		100000
PPPM initialization ...
  G vector (1/distance) = 0.186213
  grid = 8 8 8
  stencil order = 5
  estimated absolute RMS force accuracy = 0.00740184
  estimated relative force accuracy = 2.22904e-05
  3d grid and FFT values/proc = 343 8
Step Temp Volume Density TotEng PotEng E_bond E_angle E_dihed E_coul E_long E_vdwl Enthalpy Press
110000       288.2157891341     11338.2554463938         0.7836841766       278.8076867762      -581.1679505641       271.9780854362       289.7773050425        18.8756226848      2350.7998668924     -3098.1742959807      -414.4245346393       202.1570954717      -463.5465816950
Averages over the last 51 of 101 rows, steps 160000 to 210000:
Temp Volume Density TotEng PotEng E_bond E_angle E_dihed E_coul E_long E_vdwl Enthalpy Press
298.045 11230.2 0.791498 291.363 -597.942 270.504 322.299 10.6561 2310.4 -3097.8 -414 313.592 149.148
Loop time of 61.6521 on 64 procs for 100000 steps with 1002 atoms

unfix equil
undump equil

# WRITE RESTART FILES, CLEANUP, AND EXIT
write_restart   md-10.end.restart
PPPM initialization ...
  G vector (1/distance) = 0.186418
  grid = 8 8 8
  stencil order = 5
  estimated absolute RMS force accuracy = 0.0073285
  estimated relative force accuracy = 2.20696e-05
  3d grid and FFT values/proc = 343 8
write_data      md-10.end.data pair ii
PPPM initialization ...
  G vector (1/distance) = 0.186418
  grid = 8 8 8
  stencil order = 5
  estimated absolute RMS force accuracy = 0.0073285
  estimated relative force accuracy = 2.20696e-05
  3d grid and FFT values/proc = 343 8
unfix		averages
