#===========================================================
# GENERAL PROCEDURES
#===========================================================
units		real	# g/mol, angstroms, fs, kcal/mol, K, atm, charge*angstrom
dimension	3	# 3 dimensional simulation
newton		on	# use Newton's 3rd law
boundary	p p p	# periodic boundary conditions
atom_style	full    # molecular + charge

#===========================================================
# FORCE FIELD DEFINITION
#===========================================================
special_bonds  lj   0.0 0.0 0.0  coul 0.0 0.0 0.0     # NO     1-4 LJ/COUL interactions
pair_style     hybrid lj/cut/coul/long 14.0 14.0 # outer_LJ outer_Coul (cutoff values, see LAMMPS Doc)
kspace_style   pppm 0.0001          # long-range electrostatics sum method
bond_style     harmonic             # parameters needed: k_bond, r0
angle_style    harmonic             # parameters needed: k_theta, theta0
dihedral_style hybrid opls            # parameters needed: V1, V2, V3, V4
pair_modify    shift yes mix arithmetic       # using Lorenz-Berthelot mixing rules

#===========================================================
# SETUP SIMULATIONS
#===========================================================

# READ IN COEFFICIENTS/COORDINATES/TOPOLOGY
read_data md-15.data
  orthogonal box = (-11.2311 -11.2311 -11.2311) to (11.2311 11.2311 11.2311)
  reading atoms ...
  1002 atoms
  reading velocities ...
  1002 velocities
  scanning bonds ...
  scanning angles ...
  scanning dihedrals ...
  reading bonds ...
  835 bonds
  reading angles ...
  1169 angles
  reading dihedrals ...
  501 dihedrals
include md-15.in.settings
     # Non-bonded interactions (pair-wise)
     pair_coeff           1          1          lj/cut/coul/long     0.008895             2.472292
     pair_coeff           1          2          lj/cut/coul/long     0.001950             2.250716
     pair_coeff           1          3          lj/cut/coul/long     0.027639             3.140452
     pair_coeff           1          4          lj/cut/coul/long     0.038187             2.730439
     pair_coeff           2          2          lj/cut/coul/long     0.001000             1.778439
     pair_coeff           2          3          lj/cut/coul/long     0.003844             3.084341
     pair_coeff           2          4          lj/cut/coul/long     0.006249             2.609874
     pair_coeff           3          3          lj/cut/coul/long     0.204763             3.451371
     pair_coeff           3          4          lj/cut/coul/long     0.180349             3.234606
     pair_coeff           4          4          lj/cut/coul/long     0.205323             2.904517

     # Stretching interactions
     bond_coeff           1           366.904251           1.096103
     bond_coeff           2           612.219900           0.957501
     bond_coeff           3           368.709924           1.411527

     # Bending interactions
     angle_coeff          1           40.926667            108.205025
     angle_coeff          2           61.328715            112.232133
     angle_coeff          3           49.873049            108.741688

     # Dihedral interactions
     dihedral_coeff       1          opls                  0.105414            -0.205941             0.372587            -0.070860

# SET RUN PARAMETERS
timestep	1.0		# fs
run_style	verlet 		# Velocity-Verlet integrator
neigh_modify every 1 delay 0 check no one 10000 # More relaxed rebuild criteria can be used

#===========================================================
# RUN CONSTRAINED RELAXATION
#===========================================================

# SET OUTPUTS
thermo_style    custom step temp vol density etotal pe ebond eangle edihed ecoul elong evdwl enthalpy press
thermo_modify   format float %20.10f
thermo 1000

# DECLARE RELEVANT OUTPUT VARIABLES
variable        my_step equal   step
variable        my_temp equal   temp
variable        my_rho  equal   density
variable        my_pe   equal   pe
variable        my_ebon equal   ebond
variable        my_eang equal   eangle
variable        my_edih equal   edihed
variable        my_evdw equal   evdwl
variable        my_eel  equal   (ecoul+elong)
variable        my_ent  equal   enthalpy
variable        my_P    equal   press
variable        my_vol  equal   vol

fix  averages all ave/time 100 10 1000 v_my_temp v_my_rho v_my_vol v_my_pe v_my_edih v_my_evdw v_my_eel v_my_ent v_my_P file thermo.avg

# INITIALIZE VELOCITIES AND CREATE THE CONSTRAINED RELAXATION FIX
velocity        all create 100.0 42184 mom yes rot yes

fix relax all nve/limit 0.01
run             10000
PPPM initialization ...
  G vector (1/distance) = 0.186222
  grid = 8 8 8
  stencil order = 5
  estimated absolute RMS force accuracy = 0.00739865
  estimated relative force accuracy = 2.22808e-05
  3d grid and FFT values/proc = 343 8
  update every 1 steps, delay 0 steps, check no
Step Temp Volume Density TotEng PotEng E_bond E_angle E_dihed E_coul E_long E_vdwl Enthalpy Press
0       100.0000000000     11333.3367152673         0.7840242999      -282.6338338716      -581.0129198766       254.3267082993       336.4910281140         7.3053629404      2328.4374908707     -3096.7084152111      -410.8650948898      -399.8457441173      -709.1499270332
Averages over the last 6 of 11 rows, steps 5000 to 10000:
Temp Volume Density TotEng PotEng E_bond E_angle E_dihed E_coul E_long E_vdwl Enthalpy Press
13.2601 11333.3 0.784024 -1488.94 -1528.51 8.3372 16.6705 -37.9424 2035.76 -3100.11 -451.218 -1877.62 -2351.57
Loop time of 12.9892 on 64 procs for 10000 steps with 1002 atoms

unfix relax

#===========================================================
# RUN RAMPED ANNEAL
#===========================================================

# REINITIALIZE THE VELOCITIES AND CREATE THE ANNEALING FIX
velocity        all create 100.0 42184 mom yes rot yes

fix mom all momentum 1000 linear 1 1 1 angular # Zero out system linear and angular momentum every ps
fix anneal all npt temp 100.0 298.0 100.0 iso 1.0 1.0 1000.0

# CREATE COORDINATE DUMPS FOR ANNEAL
dump anneal all custom 1000 anneal.lammpstrj id type x y z mol
dump_modify anneal sort id format float %20.10g

# RUN RAMPED ANNEAL
run 50000
PPPM initialization ...
  G vector (1/distance) = 0.186222
  grid = 8 8 8
  stencil order = 5
  estimated absolute RMS force accuracy = 0.00739865
  estimated relative force accuracy = 2.22808e-05
  3d grid and FFT values/proc = 343 8
Step Temp Volume Density TotEng PotEng E_bond E_angle E_dihed E_coul E_long E_vdwl Enthalpy Press
10000       100.0000000000     11333.3367152673         0.7840242999     -1241.7429117403     -1540.1219977453         8.5385896475        16.9187623626       -37.6441390652      2034.5849720115     -3099.7669930466      -462.7531896551     -1468.5631764006     -1372.2971820549
Averages over the last 26 of 51 rows, steps 35000 to 60000:
Temp Volume Density TotEng PotEng E_bond E_angle E_dihed E_coul E_long E_vdwl Enthalpy Press
249.196 10643.5 0.835593 -50.591 -794.14 219.757 269.573 3.65673 2252.08 -3098.49 -440.717 -80.1997 -182.342
Loop time of 68.0425 on 64 procs for 50000 steps with 1002 atoms

unfix anneal

# RUN EQUILIBRATION PHASE AT FINAL TEMP
fix anneal all npt temp 298.0 298.0 100.0 iso 1.0 1.0 1000.0
run 50000
PPPM initialization ...
  G vector (1/distance) = 0.187094
  grid = 8 8 8
  stencil order = 5
  estimated absolute RMS force accuracy = 0.00709087
  estimated relative force accuracy = 2.13539e-05
  3d grid and FFT values/proc = 343 8
Step Temp Volume Density TotEng PotEng E_bond E_angle E_dihed E_coul E_long E_vdwl Enthalpy Press
60000       312.1877560112     10858.8446410531         0.8182833144       313.7087306504      -617.7942423551       270.5125737000       310.0560879061        10.1901966127      2353.5154163547     -3113.0856319856      -448.9828849430       212.4332306521      -639.5063879047
Averages over the last 26 of 51 rows, steps 85000 to 110000:
Temp Volume Density TotEng PotEng E_bond E_angle E_dihed E_coul E_long E_vdwl Enthalpy Press
297.492 11284.9 0.787686 304.464 -583.189 267.718 324.008 9.80884 2342.91 -3112.32 -415.308 316.512 83.2264
Loop time of 64.9079 on 64 procs for 50000 steps with 1002 atoms

unfix anneal
undump anneal

# RETURN TO LESS FREQUENT NEIGHBOR BUILDS
neigh_modify every 1 delay 10 check yes one 10000 # More relaxed rebuild criteria can be used

#===========================================================
# RUN EQUILIBRIUM SIM
#===========================================================

# UPDATE RUN PARAMETERS AND CREATE FIX
fix equil all npt temp 298.0 298.0 100.0 iso 1.0 1.0 1000.0

# CREATE COORDINATE DUMPS FOR EQUILIBRIUM
dump equil all custom 1000 equil.lammpstrj id type x y z mol
dump_modify equil sort id format float %20.10g

# RUN EQUIL
run		100000
PPPM initialization ...
  G vector (1/distance) = 0.186297
  grid = 8 8 8
  stencil order = 5
  estimated absolute RMS force accuracy = 0.00737172
  estimated relative force accuracy = 2.21997e-05
  3d grid and FFT values/proc = 343 8
Step Temp Volume Density TotEng PotEng E_bond E_angle E_dihed E_coul E_long E_vdwl Enthalpy Press
110000       307.3543909041     11291.7867199111         0.7869092469       307.3805686363      -609.7006537397       272.0917542375       297.9071312979         6.7884554929      2318.1962212056     -3099.2728992834      -405.4113166902       384.4908454822       468.2456013995
Averages over the last 51 of 101 rows, steps 160000 to 210000:
Temp Volume Density TotEng PotEng E_bond E_angle E_dihed E_coul E_long E_vdwl Enthalpy Press
299.339 11370.1 0.781751 314.208 -578.956 270.375 322.395 11.2897 2328.95 -3098.96 -413.012 296.205 -109.234
Loop time of 64.4027 on 64 procs for 100000 steps with 1002 atoms

unfix equil
undump equil

# WRITE RESTART FILES, CLEANUP, AND EXIT
write_restart   md-15.end.restart
PPPM initialization ...
  G vector (1/distance) = 0.186439
  grid = 8 8 8
  stencil order = 5
  estimated absolute RMS force accuracy = 0.00732095
  estimated relative force accuracy = 2.20468e-05
  3d grid and FFT values/proc = 343 8
write_data      md-15.end.data pair ii
PPPM initialization ...
  G vector (1/distance) = 0.186439
  grid = 8 8 8
  stencil order = 5
  estimated absolute RMS force accuracy = 0.00732095
  estimated relative force accuracy = 2.20468e-05
  3d grid and FFT values/proc = 343 8
unfix		averages
