#===========================================================
# GENERAL PROCEDURES
#===========================================================
units		real	# g/mol, angstroms, fs, kcal/mol, K, atm, charge*angstrom
dimension	3	# 3 dimensional simulation
newton		on	# use Newton's 3rd law
boundary	p p p	# periodic boundary conditions
atom_style	full    # molecular + charge

#===========================================================
# FORCE FIELD DEFINITION
#===========================================================
special_bonds  lj   0.0 0.0 0.0  coul 0.0 0.0 0.0     # NO     1-4 LJ/COUL interactions
pair_style     hybrid lj/cut/coul/long 14.0 14.0 # outer_LJ outer_Coul (cutoff values, see LAMMPS Doc)
kspace_style   pppm 0.0001          # long-range electrostatics sum method
bond_style     harmonic             # parameters needed: k_bond, r0
angle_style    harmonic             # parameters needed: k_theta, theta0
dihedral_style hybrid opls            # parameters needed: V1, V2, V3, V4
pair_modify    shift yes mix arithmetic       # using Lorenz-Berthelot mixing rules

#===========================================================
# SETUP SIMULATIONS
#===========================================================

# READ IN COEFFICIENTS/COORDINATES/TOPOLOGY
read_data md-13.data
  orthogonal box = (-11.1676 -11.1676 -11.1676) to (11.1676 11.1676 11.1676)
  reading atoms ...
  1002 atoms
  reading velocities ...
  1002 velocities
  scanning bonds ...
  scanning angles ...
  scanning dihedrals ...
  reading bonds ...
  835 bonds
  reading angles ...
  1169 angles
  reading dihedrals ...
  501 dihedrals
include md-13.in.settings
     # Non-bonded interactions (pair-wise)
     pair_coeff           1          1          lj/cut/coul/long     0.010108             2.470064
     pair_coeff           1          2          lj/cut/coul/long     0.002075             2.248466
     pair_coeff           1          3          lj/cut/coul/long     0.029469             3.135868
     pair_coeff           1          4          lj/cut/coul/long     0.040515             2.733154
     pair_coeff           2          2          lj/cut/coul/long     0.001000             1.775391
     pair_coeff           2          3          lj/cut/coul/long     0.003837             3.079595
     pair_coeff           2          4          lj/cut/coul/long     0.006184             2.613894
     pair_coeff           3          3          lj/cut/coul/long     0.204250             3.446072
     pair_coeff           3          4          lj/cut/coul/long     0.180732             3.232409
     pair_coeff           4          4          lj/cut/coul/long     0.204824             2.909485

     # Stretching interactions
     bond_coeff           1           366.904251           1.096103
     bond_coeff           2           612.219900           0.957501
     bond_coeff           3           368.709924           1.411527

     # Bending interactions
     angle_coeff          1           40.926667            108.205025
     angle_coeff          2           61.328715            112.232133
     angle_coeff          3           49.873049            108.741688

     # Dihedral interactions
     dihedral_coeff       1          opls                  0.105414            -0.205941             0.372587            -0.070860

# SET RUN PARAMETERS
timestep	1.0		# fs
run_style	verlet 		# Velocity-Verlet integrator
neigh_modify every 1 delay 0 check no one 10000 # More relaxed rebuild criteria can be used

#===========================================================
# RUN CONSTRAINED RELAXATION
#===========================================================

# SET OUTPUTS
thermo_style    custom step temp vol density etotal pe ebond eangle edihed ecoul elong evdwl enthalpy press
thermo_modify   format float %20.10f
thermo 1000

# DECLARE RELEVANT OUTPUT VARIABLES
variable        my_step equal   step
variable        my_temp equal   temp
variable        my_rho  equal   density
variable        my_pe   equal   pe
variable        my_ebon equal   ebond
variable        my_eang equal   eangle
variable        my_edih equal   edihed
variable        my_evdw equal   evdwl
variable        my_eel  equal   (ecoul+elong)
variable        my_ent  equal   enthalpy
variable        my_P    equal   press
variable        my_vol  equal   vol

fix  averages all ave/time 100 10 1000 v_my_temp v_my_rho v_my_vol v_my_pe v_my_edih v_my_evdw v_my_eel v_my_ent v_my_P file thermo.avg

# INITIALIZE VELOCITIES AND CREATE THE CONSTRAINED RELAXATION FIX
velocity        all create 100.0 39635 mom yes rot yes

fix relax all nve/limit 0.01
run             10000
PPPM initialization ...
  G vector (1/distance) = 0.186569
  grid = 8 8 8
  stencil order = 5
  estimated absolute RMS force accuracy = 0.00727475
  estimated relative force accuracy = 2.19077e-05
  3d grid and FFT values/proc = 343 8
  update every 1 steps, delay 0 steps, check no
Step Temp Volume Density TotEng PotEng E_bond E_angle E_dihed E_coul E_long E_vdwl Enthalpy Press
0       100.0000000000     11142.2301506208         0.7974715352      -266.6199822631      -564.9990682680       290.4834917745       330.9452257482        14.0304225653      2320.8530498665     -3103.0557728221      -418.2554854004      -663.2767140923     -2440.9945794465
Averages over the last 6 of 11 rows, steps 5000 to 10000:
Temp Volume Density TotEng PotEng E_bond E_angle E_dihed E_coul E_long E_vdwl Enthalpy Press
12.6526 11142.2 0.797472 -1517.52 -1555.27 8.228 16.8502 -37.5388 2041.27 -3106.42 -477.668 -1887.34 -2275.84
Loop time of 11.4781 on 64 procs for 10000 steps with 1002 atoms

unfix relax

#===========================================================
# RUN RAMPED ANNEAL
#===========================================================

# REINITIALIZE THE VELOCITIES AND CREATE THE ANNEALING FIX
velocity        all create 100.0 39635 mom yes rot yes

fix mom all momentum 1000 linear 1 1 1 angular # Zero out system linear and angular momentum every ps
fix anneal all npt temp 100.0 298.0 100.0 iso 1.0 1.0 1000.0

# CREATE COORDINATE DUMPS FOR ANNEAL
dump anneal all custom 1000 anneal.lammpstrj id type x y z mol
dump_modify anneal sort id format float %20.10g

# RUN RAMPED ANNEAL
run 50000
PPPM initialization ...
  G vector (1/distance) = 0.186569
  grid = 8 8 8
  stencil order = 5
  estimated absolute RMS force accuracy = 0.00727475
  estimated relative force accuracy = 2.19077e-05
  3d grid and FFT values/proc = 343 8
Step Temp Volume Density TotEng PotEng E_bond E_angle E_dihed E_coul E_long E_vdwl Enthalpy Press
10000       100.0000000000     11142.2301506208         0.7974715352     -1265.4525102072     -1563.8315962122         8.0765501944        17.0884046719       -36.4243746255      2029.6880166610     -3106.2883499612      -475.9718431527     -1364.5394476318      -609.7732818803
Averages over the last 26 of 51 rows, steps 35000 to 60000:
Temp Volume Density TotEng PotEng E_bond E_angle E_dihed E_coul E_long E_vdwl Enthalpy Press
247.504 10718.3 0.830034 -70.4536 -808.954 211.903 259.088 6.86506 2263.46 -3104.36 -445.911 -9.86423 410.698
Loop time of 61.5163 on 64 procs for 50000 steps with 1002 atoms

unfix anneal

# RUN EQUILIBRATION PHASE AT FINAL TEMP
fix anneal all npt temp 298.0 298.0 100.0 iso 1.0 1.0 1000.0
run 50000
PPPM initialization ...
  G vector (1/distance) = 0.186575
  grid = 8 8 8
  stencil order = 5
  estimated absolute RMS force accuracy = 0.00727248
  estimated relative force accuracy = 2.19009e-05
  3d grid and FFT values/proc = 343 8
Step Temp Volume Density TotEng PotEng E_bond E_angle E_dihed E_coul E_long E_vdwl Enthalpy Press
60000       293.9846736835     11138.7303466082         0.7977221018       267.2071541058      -609.9816282258       271.1884957639       308.7850654380        15.9221836957      2326.6783192921     -3104.3674964703      -428.1881959452       692.3951720334      2617.3960190326
Averages over the last 26 of 51 rows, steps 85000 to 110000:
Temp Volume Density TotEng PotEng E_bond E_angle E_dihed E_coul E_long E_vdwl Enthalpy Press
295.576 11282.7 0.787907 282.927 -599.011 262.437 319.756 12.7563 2336.63 -3104.04 -426.552 285.145 17.8757
Loop time of 57.6212 on 64 procs for 50000 steps with 1002 atoms

unfix anneal
undump anneal

# RETURN TO LESS FREQUENT NEIGHBOR BUILDS
neigh_modify every 1 delay 10 check yes one 10000 # More relaxed rebuild criteria can be used

#===========================================================
# RUN EQUILIBRIUM SIM
#===========================================================

# UPDATE RUN PARAMETERS AND CREATE FIX
fix equil all npt temp 298.0 298.0 100.0 iso 1.0 1.0 1000.0

# CREATE COORDINATE DUMPS FOR EQUILIBRIUM
dump equil all custom 1000 equil.lammpstrj id type x y z mol
dump_modify equil sort id format float %20.10g

# RUN EQUIL
run		100000
PPPM initialization ...
  G vector (1/distance) = 0.186103
  grid = 8 8 8
  stencil order = 5
  estimated absolute RMS force accuracy = 0.0074412
  estimated relative force accuracy = 2.2409e-05
  3d grid and FFT values/proc = 343 8
Step Temp Volume Density TotEng PotEng E_bond E_angle E_dihed E_coul E_long E_vdwl Enthalpy Press
110000       291.2713785570     11399.0072387837         0.7795074779       260.2949328360      -608.7979442965       251.5520604580       324.9546749209         9.2521458692      2312.3321381694     -3095.7940001417      -411.0949635724      -351.0471590802     -3677.4043026186
Averages over the last 51 of 101 rows, steps 160000 to 210000:
Temp Volume Density TotEng PotEng E_bond E_angle E_dihed E_coul E_long E_vdwl Enthalpy Press
296.468 11279.9 0.787986 294.578 -590.021 269.493 321.601 11.6269 2328.86 -3095.94 -425.666 268.367 -155.804
Loop time of 58.5058 on 64 procs for 100000 steps with 1002 atoms

unfix equil
undump equil

# WRITE RESTART FILES, CLEANUP, AND EXIT
write_restart   md-13.end.restart
PPPM initialization ...
  G vector (1/distance) = 0.186453
  grid = 8 8 8
  stencil order = 5
  estimated absolute RMS force accuracy = 0.00731596
  estimated relative force accuracy = 2.20318e-05
  3d grid and FFT values/proc = 343 8
write_data      md-13.end.data pair ii
PPPM initialization ...
  G vector (1/distance) = 0.186453
  grid = 8 8 8
  stencil order = 5
  estimated absolute RMS force accuracy = 0.00731596
  estimated relative force accuracy = 2.20318e-05
  3d grid and FFT values/proc = 343 8
unfix		averages
