#===========================================================
# GENERAL PROCEDURES
#===========================================================
units		real	# g/mol, angstroms, fs, kcal/mol, K, atm, charge*angstrom
dimension	3	# 3 dimensional simulation
newton		on	# use Newton's 3rd law
boundary	p p p	# periodic boundary conditions
atom_style	full    # molecular + charge

#===========================================================
# FORCE FIELD DEFINITION
#===========================================================
special_bonds  lj   0.0 0.0 0.0  coul 0.0 0.0 0.0     # NO     1-4 LJ/COUL interactions
pair_style     hybrid lj/cut/coul/long 14.0 14.0 # outer_LJ outer_Coul (cutoff values, see LAMMPS Doc)
kspace_style   pppm 0.0001          # long-range electrostatics sum method
bond_style     harmonic             # parameters needed: k_bond, r0
angle_style    harmonic             # parameters needed: k_theta, theta0
dihedral_style hybrid opls            # parameters needed: V1, V2, V3, V4
pair_modify    shift yes mix arithmetic       # using Lorenz-Berthelot mixing rules

#===========================================================
# SETUP SIMULATIONS
#===========================================================

# READ IN COEFFICIENTS/COORDINATES/TOPOLOGY
read_data md-11.data
  orthogonal box = (-11.1952 -11.1952 -11.1952) to (11.1952 11.1952 11.1952)
  reading atoms ...
  1002 atoms
  reading velocities ...
  1002 velocities
  scanning bonds ...
  scanning angles ...
  scanning dihedrals ...
  reading bonds ...
  835 bonds
  reading angles ...
  1169 angles
  reading dihedrals ...
  501 dihedrals
include md-11.in.settings
     # Non-bonded interactions (pair-wise)
     pair_coeff           1          1          lj/cut/coul/long     0.010681             2.467610
     pair_coeff           1          2          lj/cut/coul/long     0.002139             2.246578
     pair_coeff           1          3          lj/cut/coul/long     0.030128             3.124425
     pair_coeff           1          4          lj/cut/coul/long     0.041282             2.733756
     pair_coeff           2          2          lj/cut/coul/long     0.001000             1.775878
     pair_coeff           2          3          lj/cut/coul/long     0.003837             3.067485
     pair_coeff           2          4          lj/cut/coul/long     0.006138             2.615602
     pair_coeff           3          3          lj/cut/coul/long     0.199278             3.432247
     pair_coeff           3          4          lj/cut/coul/long     0.178523             3.223502
     pair_coeff           4          4          lj/cut/coul/long     0.202184             2.911443

     # Stretching interactions
     bond_coeff           1           366.904251           1.096103
     bond_coeff           2           612.219900           0.957501
     bond_coeff           3           368.709924           1.411527

     # Bending interactions
     angle_coeff          1           40.926667            108.205025
     angle_coeff          2           61.328715            112.232133
     angle_coeff          3           49.873049            108.741688

     # Dihedral interactions
     dihedral_coeff       1          opls                  0.105414            -0.205941             0.372587            -0.070860

# SET RUN PARAMETERS
timestep	1.0		# fs
run_style	verlet 		# Velocity-Verlet integrator
neigh_modify every 1 delay 0 check no one 10000 # More relaxed rebuild criteria can be used

#===========================================================
# RUN CONSTRAINED RELAXATION
#===========================================================

# SET OUTPUTS
thermo_style    custom step temp vol density etotal pe ebond eangle edihed ecoul elong evdwl enthalpy press
thermo_modify   format float %20.10f
thermo 1000

# DECLARE RELEVANT OUTPUT VARIABLES
variable        my_step equal   step
variable        my_temp equal   temp
variable        my_rho  equal   density
variable        my_pe   equal   pe
variable        my_ebon equal   ebond
variable        my_eang equal   eangle
variable        my_edih equal   edihed
variable        my_evdw equal   evdwl
variable        my_eel  equal   (ecoul+elong)
variable        my_ent  equal   enthalpy
variable        my_P    equal   press
variable        my_vol  equal   vol

fix  averages all ave/time 100 10 1000 v_my_temp v_my_rho v_my_vol v_my_pe v_my_edih v_my_evdw v_my_eel v_my_ent v_my_P file thermo.avg

# INITIALIZE VELOCITIES AND CREATE THE CONSTRAINED RELAXATION FIX
velocity        all create 100.0 54694 mom yes rot yes

fix relax all nve/limit 0.01
run             10000
PPPM initialization ...
  G vector (1/distance) = 0.186418
  grid = 8 8 8
  stencil order = 5
  estimated absolute RMS force accuracy = 0.0073285
  estimated relative force accuracy = 2.20696e-05
  3d grid and FFT values/proc = 343 8
  update every 1 steps, delay 0 steps, check no
Step Temp Volume Density TotEng PotEng E_bond E_angle E_dihed E_coul E_long E_vdwl Enthalpy Press
0       100.0000000000     11225.1188856440         0.7915828308      -281.4972402761      -579.8763262811       268.0202272988       328.8649108065         9.2506763737      2321.6226177066     -3101.1553989943      -406.4793594724      -612.8186047887     -2023.8699519985
Averages over the last 6 of 11 rows, steps 5000 to 10000:
Temp Volume Density TotEng PotEng E_bond E_angle E_dihed E_coul E_long E_vdwl Enthalpy Press
12.9335 11225.1 0.791583 -1504.29 -1542.88 8.59874 16.929 -37.8051 2037.24 -3103.58 -464.266 -1886.77 -2336.35
Loop time of 11.38 on 64 procs for 10000 steps with 1002 atoms

unfix relax

#===========================================================
# RUN RAMPED ANNEAL
#===========================================================

# REINITIALIZE THE VELOCITIES AND CREATE THE ANNEALING FIX
velocity        all create 100.0 54694 mom yes rot yes

fix mom all momentum 1000 linear 1 1 1 angular # Zero out system linear and angular momentum every ps
fix anneal all npt temp 100.0 298.0 100.0 iso 1.0 1.0 1000.0

# CREATE COORDINATE DUMPS FOR ANNEAL
dump anneal all custom 1000 anneal.lammpstrj id type x y z mol
dump_modify anneal sort id format float %20.10g

# RUN RAMPED ANNEAL
run 50000
PPPM initialization ...
  G vector (1/distance) = 0.186418
  grid = 8 8 8
  stencil order = 5
  estimated absolute RMS force accuracy = 0.0073285
  estimated relative force accuracy = 2.20696e-05
  3d grid and FFT values/proc = 343 8
Step Temp Volume Density TotEng PotEng E_bond E_angle E_dihed E_coul E_long E_vdwl Enthalpy Press
10000       100.0000000000     11225.1188856440         0.7915828308     -1256.1994287120     -1554.5785147170         8.3042643033        16.3437275022       -38.2277780270      2022.1767649363     -3103.6471928740      -459.5283005578     -1430.9299599517     -1067.3379677552
Averages over the last 26 of 51 rows, steps 35000 to 60000:
Temp Volume Density TotEng PotEng E_bond E_angle E_dihed E_coul E_long E_vdwl Enthalpy Press
249.642 10603.4 0.839056 -54.4329 -799.312 221.295 271.945 6.06386 2247.03 -3102.03 -443.622 -54.5116 14.0647
Loop time of 63.4279 on 64 procs for 50000 steps with 1002 atoms

unfix anneal

# RUN EQUILIBRATION PHASE AT FINAL TEMP
fix anneal all npt temp 298.0 298.0 100.0 iso 1.0 1.0 1000.0
run 50000
PPPM initialization ...
  G vector (1/distance) = 0.185934
  grid = 8 8 8
  stencil order = 5
  estimated absolute RMS force accuracy = 0.00750262
  estimated relative force accuracy = 2.25939e-05
  3d grid and FFT values/proc = 343 8
Step Temp Volume Density TotEng PotEng E_bond E_angle E_dihed E_coul E_long E_vdwl Enthalpy Press
60000       296.2960216234     11493.8134139138         0.7730777474       293.4073467236      -590.6780144655       268.1591326554       322.3284979003        19.6155468355      2309.8944368059     -3093.7736115909      -416.9020170717       300.6674275122        43.3113201444
Averages over the last 26 of 51 rows, steps 85000 to 110000:
Temp Volume Density TotEng PotEng E_bond E_angle E_dihed E_coul E_long E_vdwl Enthalpy Press
298.579 11313.3 0.785652 308.73 -582.168 266.75 322.619 12.9846 2327.97 -3093.08 -419.411 291.87 -102.02
Loop time of 58.5445 on 64 procs for 50000 steps with 1002 atoms

unfix anneal
undump anneal

# RETURN TO LESS FREQUENT NEIGHBOR BUILDS
neigh_modify every 1 delay 10 check yes one 10000 # More relaxed rebuild criteria can be used

#===========================================================
# RUN EQUILIBRIUM SIM
#===========================================================

# UPDATE RUN PARAMETERS AND CREATE FIX
fix equil all npt temp 298.0 298.0 100.0 iso 1.0 1.0 1000.0

# CREATE COORDINATE DUMPS FOR EQUILIBRIUM
dump equil all custom 1000 equil.lammpstrj id type x y z mol
dump_modify equil sort id format float %20.10g

# RUN EQUIL
run		100000
PPPM initialization ...
  G vector (1/distance) = 0.186001
  grid = 8 8 8
  stencil order = 5
  estimated absolute RMS force accuracy = 0.00747839
  estimated relative force accuracy = 2.2521e-05
  3d grid and FFT values/proc = 343 8
Step Temp Volume Density TotEng PotEng E_bond E_angle E_dihed E_coul E_long E_vdwl Enthalpy Press
110000       289.3935933337     11456.4116531948         0.7756016153       291.1152766446      -572.3746821017       289.0181034084       298.4862062825        13.0945815688      2339.9442194029     -3094.8848048618      -418.0329879025      -282.3437920080     -3432.2421884969
Averages over the last 51 of 101 rows, steps 160000 to 210000:
Temp Volume Density TotEng PotEng E_bond E_angle E_dihed E_coul E_long E_vdwl Enthalpy Press
297.638 11323 0.784975 306.125 -581.964 263.774 318.042 12.4626 2335.34 -3094.24 -417.337 294.106 -72.2386
Loop time of 58.4477 on 64 procs for 100000 steps with 1002 atoms

unfix equil
undump equil

# WRITE RESTART FILES, CLEANUP, AND EXIT
write_restart   md-11.end.restart
PPPM initialization ...
  G vector (1/distance) = 0.186238
  grid = 8 8 8
  stencil order = 5
  estimated absolute RMS force accuracy = 0.00739281
  estimated relative force accuracy = 2.22632e-05
  3d grid and FFT values/proc = 343 8
write_data      md-11.end.data pair ii
PPPM initialization ...
  G vector (1/distance) = 0.186238
  grid = 8 8 8
  stencil order = 5
  estimated absolute RMS force accuracy = 0.00739281
  estimated relative force accuracy = 2.22632e-05
  3d grid and FFT values/proc = 343 8
unfix		averages
