#===========================================================
# GENERAL PROCEDURES
#===========================================================
units		real	# g/mol, angstroms, fs, kcal/mol, K, atm, charge*angstrom
dimension	3	# 3 dimensional simulation
newton		on	# use Newton's 3rd law
boundary	p p p	# periodic boundary conditions
atom_style	full    # molecular + charge

#===========================================================
# FORCE FIELD DEFINITION
#===========================================================
special_bonds  lj   0.0 0.0 0.0  coul 0.0 0.0 0.0     # NO     1-4 LJ/COUL interactions
pair_style     hybrid lj/cut/coul/long 14.0 14.0 # outer_LJ outer_Coul (cutoff values, see LAMMPS Doc)
kspace_style   pppm 0.0001          # long-range electrostatics sum method
bond_style     harmonic             # parameters needed: k_bond, r0
angle_style    harmonic             # parameters needed: k_theta, theta0
dihedral_style hybrid opls            # parameters needed: V1, V2, V3, V4
pair_modify    shift yes mix arithmetic       # using Lorenz-Berthelot mixing rules

#===========================================================
# SETUP SIMULATIONS
#===========================================================

# READ IN COEFFICIENTS/COORDINATES/TOPOLOGY
read_data charges.data
  orthogonal box = (-21.9842 -21.9842 -21.9842) to (21.9842 21.9842 21.9842)
  reading atoms ...
  1002 atoms
  scanning bonds ...
  scanning angles ...
  scanning dihedrals ...
  reading bonds ...
  835 bonds
  reading angles ...
  1169 angles
  reading dihedrals ...
  501 dihedrals
include charges.in.settings
     # Non-bonded interactions (pair-wise)
     pair_coeff           1          1          lj/cut/coul/long      0.044000             2.571134
     pair_coeff           1          2          lj/cut/coul/long      0.044000             2.571134
     pair_coeff           1          3          lj/cut/coul/long      0.067971             3.000992
     pair_coeff           1          4          lj/cut/coul/long      0.051381             2.844640
     pair_coeff           2          2          lj/cut/coul/long      0.044000             2.571134
     pair_coeff           2          3          lj/cut/coul/long      0.067971             3.000992
     pair_coeff           2          4          lj/cut/coul/long      0.051381             2.844640
     pair_coeff           3          3          lj/cut/coul/long      0.105000             3.430851
     pair_coeff           3          4          lj/cut/coul/long      0.079373             3.274498
     pair_coeff           4          4          lj/cut/coul/long      0.060000             3.118146

     # Stretching interactions
     bond_coeff           1           366.682029           1.096103
     bond_coeff           2           612.219900           0.957501
     bond_coeff           3           366.799608           1.411526

     # Bending interactions
     angle_coeff          1           41.034712            108.205056
     angle_coeff          2           61.311509            112.230334
     angle_coeff          3           49.909498            108.734074

     # Dihedral interactions
     dihedral_coeff       1          opls                  0.105716            -0.206212             0.372643            -0.071123

# SET RUN PARAMETERS
timestep	1.0		# fs
run_style	verlet 		# Velocity-Verlet integrator
neigh_modify every 1 delay 0 check no one 10000 # More relaxed rebuild criteria can be used

#===========================================================
# RUN CONSTRAINED RELAXATION
#===========================================================

# SET OUTPUTS
thermo_style    custom step temp vol density etotal pe ebond eangle edihed ecoul elong evdwl enthalpy press
thermo_modify   format float %20.10f
thermo 1000

# DECLARE RELEVANT OUTPUT VARIABLES
variable        my_step equal   step
variable        my_temp equal   temp
variable        my_rho  equal   density
variable        my_pe   equal   pe
variable        my_ebon equal   ebond
variable        my_eang equal   eangle
variable        my_edih equal   edihed
variable        my_evdw equal   evdwl
variable        my_eel  equal   (ecoul+elong)
variable        my_ent  equal   enthalpy
variable        my_P    equal   press
variable        my_vol  equal   vol

fix  averages all ave/time 100 10 1000 v_my_temp v_my_rho v_my_vol v_my_pe v_my_edih v_my_evdw v_my_eel v_my_ent v_my_P file thermo.avg

# INITIALIZE VELOCITIES AND CREATE THE CONSTRAINED RELAXATION FIX
velocity        all create 400.0 31748 mom yes rot yes

fix relax all nve/limit 0.01
run             10000
PPPM initialization ...
  G vector (1/distance) = 0.157261
  grid = 10 10 10
  stencil order = 5
  estimated absolute RMS force accuracy = 0.019352
  estimated relative force accuracy = 5.82781e-05
  3d grid and FFT values/proc = 720 60
  update every 1 steps, delay 0 steps, check no
Step Temp Volume Density TotEng PotEng E_bond E_angle E_dihed E_coul E_long E_vdwl Enthalpy Press
0       400.0000000000     85000.7203524213         0.1045357186      1357.3783840916       163.8620400716       175.0989444444        91.8424623491       -43.6060096652      2647.8172156996     -2655.8362903303       -51.4542824261     -1562.8576557957     -2355.6971735151
Averages over the last 6 of 11 rows, steps 5000 to 10000:
Temp Volume Density TotEng PotEng E_bond E_angle E_dihed E_coul E_long E_vdwl Enthalpy Press
21.3518 85000.7 0.104536 -1002.39 -1066.1 1.80497 15.2552 -35.0205 2094.36 -2666.46 -476.041 -974.516 22.4841
Loop time of 42.6037 on 24 procs for 10000 steps with 1002 atoms

unfix relax

#===========================================================
# RUN RAMPED ANNEAL
#===========================================================

# REINITIALIZE THE VELOCITIES AND CREATE THE ANNEALING FIX
velocity        all create 400.0 31748 mom yes rot yes

fix mom all momentum 1000 linear 1 1 1 angular # Zero out system linear and angular momentum every ps
fix anneal all npt temp 400.0 298.0 100.0 iso 1.0 1.0 1000.0

# CREATE COORDINATE DUMPS FOR ANNEAL
dump anneal all custom 1000 anneal.lammpstrj id type x y z mol
dump_modify anneal sort id format float %20.10g

# RUN RAMPED ANNEAL
run 50000
PPPM initialization ...
  G vector (1/distance) = 0.157261
  grid = 10 10 10
  stencil order = 5
  estimated absolute RMS force accuracy = 0.019352
  estimated relative force accuracy = 5.82781e-05
  3d grid and FFT values/proc = 720 60
Step Temp Volume Density TotEng PotEng E_bond E_angle E_dihed E_coul E_long E_vdwl Enthalpy Press
10000       400.0000000000     85000.7203524213         0.1045357186        64.2980426085     -1129.2183014115         1.8246013384        15.7084681050       -36.6732136075      2073.5254512309     -2666.8451382231      -516.7584702552       835.9280465302       622.4587993606
Averages over the last 26 of 51 rows, steps 35000 to 60000:
Temp Volume Density TotEng PotEng E_bond E_angle E_dihed E_coul E_long E_vdwl Enthalpy Press
324.11 15029.2 0.594424 866.177 -100.899 281.064 343.148 14.7516 2335.9 -2667.1 -408.668 875.301 20.4233
Loop time of 133.815 on 24 procs for 50000 steps with 1002 atoms

unfix anneal

# RUN EQUILIBRATION PHASE AT FINAL TEMP
fix anneal all npt temp 298.0 298.0 100.0 iso 1.0 1.0 1000.0
run 50000
PPPM initialization ...
  G vector (1/distance) = 0.183091
  grid = 8 8 8
  stencil order = 5
  estimated absolute RMS force accuracy = 0.00876765
  estimated relative force accuracy = 2.64035e-05
  3d grid and FFT values/proc = 567 32
Step Temp Volume Density TotEng PotEng E_bond E_angle E_dihed E_coul E_long E_vdwl Enthalpy Press
60000       301.9004158235     13195.0978374368         0.6734024630       628.6495713903      -272.1581299890       259.3860164119       304.1351402544        15.9960688555      2715.5821797469     -3103.2849401250      -463.9725951328       178.6838147031     -2338.2500926052
Averages over the last 26 of 51 rows, steps 85000 to 110000:
Temp Volume Density TotEng PotEng E_bond E_angle E_dihed E_coul E_long E_vdwl Enthalpy Press
298.377 13490.1 0.658987 650.04 -240.254 263.822 320.353 13.6686 2729.14 -3104.46 -462.78 621.982 -138.451
Loop time of 125.812 on 24 procs for 50000 steps with 1002 atoms

unfix anneal
undump anneal

# RETURN TO LESS FREQUENT NEIGHBOR BUILDS
neigh_modify every 1 delay 10 check yes one 10000 # More relaxed rebuild criteria can be used

#===========================================================
# RUN EQUILIBRIUM SIM
#===========================================================

# UPDATE RUN PARAMETERS AND CREATE FIX
fix equil all npt temp 298.0 298.0 100.0 iso 1.0 1.0 1000.0

# CREATE COORDINATE DUMPS FOR EQUILIBRIUM
dump equil all custom 1000 equil.lammpstrj id type x y z mol
dump_modify equil sort id format float %20.10g

# RUN EQUIL
run		100000
PPPM initialization ...
  G vector (1/distance) = 0.183003
  grid = 8 8 8
  stencil order = 5
  estimated absolute RMS force accuracy = 0.00880453
  estimated relative force accuracy = 2.65146e-05
  3d grid and FFT values/proc = 567 32
Step Temp Volume Density TotEng PotEng E_bond E_angle E_dihed E_coul E_long E_vdwl Enthalpy Press
110000       317.8951413012     13251.3487571746         0.6705439232       668.9771253035      -279.5554917654       273.0606939230       301.7740075317        15.9057470664      2708.1330518337     -3103.9421019345      -474.4868901856       809.4181263293       726.7046560931
Averages over the last 51 of 101 rows, steps 160000 to 210000:
Temp Volume Density TotEng PotEng E_bond E_angle E_dihed E_coul E_long E_vdwl Enthalpy Press
299.14 13441.9 0.661334 647.56 -245.012 260.603 321.325 12.1793 2727.62 -3103.12 -463.623 634.292 -68.4632
Loop time of 198.795 on 24 procs for 100000 steps with 1002 atoms

unfix equil
undump equil

# WRITE RESTART FILES, CLEANUP, AND EXIT
write_restart   charges.end.restart
PPPM initialization ...
  G vector (1/distance) = 0.182291
  grid = 8 8 8
  stencil order = 5
  estimated absolute RMS force accuracy = 0.00910761
  estimated relative force accuracy = 2.74273e-05
  3d grid and FFT values/proc = 567 32
write_data      charges.end.data pair ii
PPPM initialization ...
  G vector (1/distance) = 0.182291
  grid = 8 8 8
  stencil order = 5
  estimated absolute RMS force accuracy = 0.00910761
  estimated relative force accuracy = 2.74273e-05
  3d grid and FFT values/proc = 567 32
unfix		averages
