#===========================================================
# GENERAL PROCEDURES
#===========================================================
units		real	# g/mol, angstroms, fs, kcal/mol, K, atm, charge*angstrom
dimension	3	# 3 dimensional simulation
newton		on	# use Newton's 3rd law
boundary	p p p	# periodic boundary conditions
atom_style	full    # molecular + charge

#===========================================================
# FORCE FIELD DEFINITION
#===========================================================
special_bonds  lj   0.0 0.0 0.0  coul 0.0 0.0 0.0     # NO     1-4 LJ/COUL interactions
pair_style     hybrid lj/cut/coul/long 14.0 14.0 # outer_LJ outer_Coul (cutoff values, see LAMMPS Doc)
kspace_style   pppm 0.0001          # long-range electrostatics sum method
bond_style     harmonic             # parameters needed: k_bond, r0
angle_style    harmonic             # parameters needed: k_theta, theta0
dihedral_style hybrid opls            # parameters needed: V1, V2, V3, V4
pair_modify    shift yes mix arithmetic       # using Lorenz-Berthelot mixing rules

#===========================================================
# SETUP SIMULATIONS
#===========================================================

# READ IN COEFFICIENTS/COORDINATES/TOPOLOGY
read_data md-5.data
  orthogonal box = (-11.1463 -11.1463 -11.1463) to (11.1463 11.1463 11.1463)
  reading atoms ...
  1002 atoms
  reading velocities ...
  1002 velocities
  scanning bonds ...
  scanning angles ...
  scanning dihedrals ...
  reading bonds ...
  835 bonds
  reading angles ...
  1169 angles
  reading dihedrals ...
  501 dihedrals
include md-5.in.settings
     # Non-bonded interactions (pair-wise)
     pair_coeff           1          1          lj/cut/coul/long     0.021642             2.424227
     pair_coeff           1          2          lj/cut/coul/long     0.004553             2.349992
     pair_coeff           1          3          lj/cut/coul/long     0.042621             3.077981
     pair_coeff           1          4          lj/cut/coul/long     0.056196             2.691933
     pair_coeff           2          2          lj/cut/coul/long     0.001000             2.261765
     pair_coeff           2          3          lj/cut/coul/long     0.007756             3.056775
     pair_coeff           2          4          lj/cut/coul/long     0.010790             2.649563
     pair_coeff           3          3          lj/cut/coul/long     0.199655             3.382504
     pair_coeff           3          4          lj/cut/coul/long     0.171644             3.176814
     pair_coeff           4          4          lj/cut/coul/long     0.186531             2.869345

     # Stretching interactions
     bond_coeff           1           366.904251           1.096103
     bond_coeff           2           612.219900           0.957501
     bond_coeff           3           368.709924           1.411527

     # Bending interactions
     angle_coeff          1           40.926667            108.205025
     angle_coeff          2           61.328715            112.232133
     angle_coeff          3           49.873049            108.741688

     # Dihedral interactions
     dihedral_coeff       1          opls                  0.105414            -0.205941             0.372587            -0.070860

# SET RUN PARAMETERS
timestep	1.0		# fs
run_style	verlet 		# Velocity-Verlet integrator
neigh_modify every 1 delay 0 check no one 10000 # More relaxed rebuild criteria can be used

#===========================================================
# RUN CONSTRAINED RELAXATION
#===========================================================

# SET OUTPUTS
thermo_style    custom step temp vol density etotal pe ebond eangle edihed ecoul elong evdwl enthalpy press
thermo_modify   format float %20.10f
thermo 1000

# DECLARE RELEVANT OUTPUT VARIABLES
variable        my_step equal   step
variable        my_temp equal   temp
variable        my_rho  equal   density
variable        my_pe   equal   pe
variable        my_ebon equal   ebond
variable        my_eang equal   eangle
variable        my_edih equal   edihed
variable        my_evdw equal   evdwl
variable        my_eel  equal   (ecoul+elong)
variable        my_ent  equal   enthalpy
variable        my_P    equal   press
variable        my_vol  equal   vol

fix  averages all ave/time 100 10 1000 v_my_temp v_my_rho v_my_vol v_my_pe v_my_edih v_my_evdw v_my_eel v_my_ent v_my_P file thermo.avg

# INITIALIZE VELOCITIES AND CREATE THE CONSTRAINED RELAXATION FIX
velocity        all create 100.0 34986 mom yes rot yes

fix relax all nve/limit 0.01
run             10000
PPPM initialization ...
  G vector (1/distance) = 0.186686
  grid = 8 8 8
  stencil order = 5
  estimated absolute RMS force accuracy = 0.00723343
  estimated relative force accuracy = 2.17833e-05
  3d grid and FFT values/proc = 343 8
  update every 1 steps, delay 0 steps, check no
Step Temp Volume Density TotEng PotEng E_bond E_angle E_dihed E_coul E_long E_vdwl Enthalpy Press
0       100.0000000000     11078.5243964894         0.8020573016      -199.5674758109      -497.9465618159       259.3881103578       344.4208285485        15.9256716942      2501.9973226747     -3106.7378326978      -512.9406623934      -866.0337163486     -4124.9657561937
Averages over the last 6 of 11 rows, steps 5000 to 10000:
Temp Volume Density TotEng PotEng E_bond E_angle E_dihed E_coul E_long E_vdwl Enthalpy Press
13.0788 11078.5 0.802057 -1482.99 -1522.01 5.98217 16.6432 -36.808 2154.83 -3107.64 -555.012 -1877.55 -2442.08
Loop time of 12.5005 on 64 procs for 10000 steps with 1002 atoms

unfix relax

#===========================================================
# RUN RAMPED ANNEAL
#===========================================================

# REINITIALIZE THE VELOCITIES AND CREATE THE ANNEALING FIX
velocity        all create 100.0 34986 mom yes rot yes

fix mom all momentum 1000 linear 1 1 1 angular # Zero out system linear and angular momentum every ps
fix anneal all npt temp 100.0 298.0 100.0 iso 1.0 1.0 1000.0

# CREATE COORDINATE DUMPS FOR ANNEAL
dump anneal all custom 1000 anneal.lammpstrj id type x y z mol
dump_modify anneal sort id format float %20.10g

# RUN RAMPED ANNEAL
run 50000
PPPM initialization ...
  G vector (1/distance) = 0.186686
  grid = 8 8 8
  stencil order = 5
  estimated absolute RMS force accuracy = 0.00723343
  estimated relative force accuracy = 2.17833e-05
  3d grid and FFT values/proc = 343 8
Step Temp Volume Density TotEng PotEng E_bond E_angle E_dihed E_coul E_long E_vdwl Enthalpy Press
10000       100.0000000000     11078.5243964894         0.8020573016     -1237.0329364093     -1535.4120224143         5.9940463750        16.6122073021       -36.3175257383      2150.7151882771     -3107.6381869343      -564.7777516958     -1453.8782500986     -1342.1227347358
Averages over the last 26 of 51 rows, steps 35000 to 60000:
Temp Volume Density TotEng PotEng E_bond E_angle E_dihed E_coul E_long E_vdwl Enthalpy Press
244.856 10378 0.857609 -40.9724 -771.571 219.381 272.565 6.21892 2366.92 -3106.53 -530.123 -36.5667 23.8462
Loop time of 71.1385 on 64 procs for 50000 steps with 1002 atoms

unfix anneal

# RUN EQUILIBRATION PHASE AT FINAL TEMP
fix anneal all npt temp 298.0 298.0 100.0 iso 1.0 1.0 1000.0
run 50000
PPPM initialization ...
  G vector (1/distance) = 0.186512
  grid = 8 8 8
  stencil order = 5
  estimated absolute RMS force accuracy = 0.00729498
  estimated relative force accuracy = 2.19686e-05
  3d grid and FFT values/proc = 343 8
Step Temp Volume Density TotEng PotEng E_bond E_angle E_dihed E_coul E_long E_vdwl Enthalpy Press
60000       293.4742422997     11173.4225657503         0.7952452645       298.7916574724      -576.8741043615       259.4198612024       336.5302983612        15.5866273468      2388.6862244470     -3103.4026100889      -473.6945056300       826.5433973604      3238.6764310283
Averages over the last 26 of 51 rows, steps 85000 to 110000:
Temp Volume Density TotEng PotEng E_bond E_angle E_dihed E_coul E_long E_vdwl Enthalpy Press
296.903 11023.1 0.806271 320.406 -565.49 267.228 322.362 10.6469 2424.79 -3102.93 -487.58 346.689 163.848
Loop time of 67.5354 on 64 procs for 50000 steps with 1002 atoms

unfix anneal
undump anneal

# RETURN TO LESS FREQUENT NEIGHBOR BUILDS
neigh_modify every 1 delay 10 check yes one 10000 # More relaxed rebuild criteria can be used

#===========================================================
# RUN EQUILIBRIUM SIM
#===========================================================

# UPDATE RUN PARAMETERS AND CREATE FIX
fix equil all npt temp 298.0 298.0 100.0 iso 1.0 1.0 1000.0

# CREATE COORDINATE DUMPS FOR EQUILIBRIUM
dump equil all custom 1000 equil.lammpstrj id type x y z mol
dump_modify equil sort id format float %20.10g

# RUN EQUIL
run		100000
PPPM initialization ...
  G vector (1/distance) = 0.18641
  grid = 8 8 8
  stencil order = 5
  estimated absolute RMS force accuracy = 0.00733131
  estimated relative force accuracy = 2.2078e-05
  3d grid and FFT values/proc = 343 8
Step Temp Volume Density TotEng PotEng E_bond E_angle E_dihed E_coul E_long E_vdwl Enthalpy Press
110000       290.0816267566     11229.4602496400         0.7912768010       297.3337619653      -568.2091446193       265.6209804621       337.4997236633         3.5747053461      2402.4318600411     -3101.5161672081      -475.8202469238       465.1617572339      1024.7776270960
Averages over the last 51 of 101 rows, steps 160000 to 210000:
Temp Volume Density TotEng PotEng E_bond E_angle E_dihed E_coul E_long E_vdwl Enthalpy Press
298.863 11176.8 0.795268 332.618 -559.127 260.511 316.128 11.8075 2431.34 -3100.96 -477.952 392.699 369.935
Loop time of 64.517 on 64 procs for 100000 steps with 1002 atoms

unfix equil
undump equil

# WRITE RESTART FILES, CLEANUP, AND EXIT
write_restart   md-5.end.restart
PPPM initialization ...
  G vector (1/distance) = 0.186309
  grid = 8 8 8
  stencil order = 5
  estimated absolute RMS force accuracy = 0.00736732
  estimated relative force accuracy = 2.21865e-05
  3d grid and FFT values/proc = 343 8
write_data      md-5.end.data pair ii
PPPM initialization ...
  G vector (1/distance) = 0.186309
  grid = 8 8 8
  stencil order = 5
  estimated absolute RMS force accuracy = 0.00736732
  estimated relative force accuracy = 2.21865e-05
  3d grid and FFT values/proc = 343 8
unfix		averages
