#===========================================================
# GENERAL PROCEDURES
#===========================================================
units		real	# g/mol, angstroms, fs, kcal/mol, K, atm, charge*angstrom
dimension	3	# 3 dimensional simulation
newton		on	# use Newton's 3rd law
boundary	p p p	# periodic boundary conditions
atom_style	full    # molecular + charge

#===========================================================
# FORCE FIELD DEFINITION
#===========================================================
special_bonds  lj   0.0 0.0 0.0  coul 0.0 0.0 0.0     # NO     1-4 LJ/COUL interactions
pair_style     hybrid lj/cut/coul/long 14.0 14.0 # outer_LJ outer_Coul (cutoff values, see LAMMPS Doc)
kspace_style   pppm 0.0001          # long-range electrostatics sum method
bond_style     harmonic             # parameters needed: k_bond, r0
angle_style    harmonic             # parameters needed: k_theta, theta0
dihedral_style hybrid opls            # parameters needed: V1, V2, V3, V4
pair_modify    shift yes mix arithmetic       # using Lorenz-Berthelot mixing rules

#===========================================================
# SETUP SIMULATIONS
#===========================================================

# READ IN COEFFICIENTS/COORDINATES/TOPOLOGY
read_data md-12.data
  orthogonal box = (-11.2281 -11.2281 -11.2281) to (11.2281 11.2281 11.2281)
  reading atoms ...
  1002 atoms
  reading velocities ...
  1002 velocities
  scanning bonds ...
  scanning angles ...
  scanning dihedrals ...
  reading bonds ...
  835 bonds
  reading angles ...
  1169 angles
  reading dihedrals ...
  501 dihedrals
include md-12.in.settings
     # Non-bonded interactions (pair-wise)
     pair_coeff           1          1          lj/cut/coul/long     0.010560             2.470161
     pair_coeff           1          2          lj/cut/coul/long     0.002118             2.248402
     pair_coeff           1          3          lj/cut/coul/long     0.030183             3.135624
     pair_coeff           1          4          lj/cut/coul/long     0.041352             2.731379
     pair_coeff           2          2          lj/cut/coul/long     0.001000             1.774469
     pair_coeff           2          3          lj/cut/coul/long     0.003839             3.079283
     pair_coeff           2          4          lj/cut/coul/long     0.006174             2.611571
     pair_coeff           3          3          lj/cut/coul/long     0.204972             3.445750
     pair_coeff           3          4          lj/cut/coul/long     0.180351             3.231407
     pair_coeff           4          4          lj/cut/coul/long     0.203710             2.906843

     # Stretching interactions
     bond_coeff           1           366.904251           1.096103
     bond_coeff           2           612.219900           0.957501
     bond_coeff           3           368.709924           1.411527

     # Bending interactions
     angle_coeff          1           40.926667            108.205025
     angle_coeff          2           61.328715            112.232133
     angle_coeff          3           49.873049            108.741688

     # Dihedral interactions
     dihedral_coeff       1          opls                  0.105414            -0.205941             0.372587            -0.070860

# SET RUN PARAMETERS
timestep	1.0		# fs
run_style	verlet 		# Velocity-Verlet integrator
neigh_modify every 1 delay 0 check no one 10000 # More relaxed rebuild criteria can be used

#===========================================================
# RUN CONSTRAINED RELAXATION
#===========================================================

# SET OUTPUTS
thermo_style    custom step temp vol density etotal pe ebond eangle edihed ecoul elong evdwl enthalpy press
thermo_modify   format float %20.10f
thermo 1000

# DECLARE RELEVANT OUTPUT VARIABLES
variable        my_step equal   step
variable        my_temp equal   temp
variable        my_rho  equal   density
variable        my_pe   equal   pe
variable        my_ebon equal   ebond
variable        my_eang equal   eangle
variable        my_edih equal   edihed
variable        my_evdw equal   evdwl
variable        my_eel  equal   (ecoul+elong)
variable        my_ent  equal   enthalpy
variable        my_P    equal   press
variable        my_vol  equal   vol

fix  averages all ave/time 100 10 1000 v_my_temp v_my_rho v_my_vol v_my_pe v_my_edih v_my_evdw v_my_eel v_my_ent v_my_P file thermo.avg

# INITIALIZE VELOCITIES AND CREATE THE CONSTRAINED RELAXATION FIX
velocity        all create 100.0 27448 mom yes rot yes

fix relax all nve/limit 0.01
run             10000
PPPM initialization ...
  G vector (1/distance) = 0.186238
  grid = 8 8 8
  stencil order = 5
  estimated absolute RMS force accuracy = 0.00739281
  estimated relative force accuracy = 2.22632e-05
  3d grid and FFT values/proc = 343 8
  update every 1 steps, delay 0 steps, check no
Step Temp Volume Density TotEng PotEng E_bond E_angle E_dihed E_coul E_long E_vdwl Enthalpy Press
0       100.0000000000     11324.3323775758         0.7846477026      -329.3282816485      -627.7073676535       269.0602399668       283.6724491863        13.0425839863      2347.0334829762     -3098.4101339637      -442.1059898056      -594.2516913115     -1604.1014773600
Averages over the last 6 of 11 rows, steps 5000 to 10000:
Temp Volume Density TotEng PotEng E_bond E_angle E_dihed E_coul E_long E_vdwl Enthalpy Press
13.216 11324.3 0.784648 -1520.9 -1560.33 8.51063 16.3924 -37.8439 2028.37 -3100.42 -475.337 -1887.96 -2222.56
Loop time of 11.4696 on 64 procs for 10000 steps with 1002 atoms

unfix relax

#===========================================================
# RUN RAMPED ANNEAL
#===========================================================

# REINITIALIZE THE VELOCITIES AND CREATE THE ANNEALING FIX
velocity        all create 100.0 27448 mom yes rot yes

fix mom all momentum 1000 linear 1 1 1 angular # Zero out system linear and angular momentum every ps
fix anneal all npt temp 100.0 298.0 100.0 iso 1.0 1.0 1000.0

# CREATE COORDINATE DUMPS FOR ANNEAL
dump anneal all custom 1000 anneal.lammpstrj id type x y z mol
dump_modify anneal sort id format float %20.10g

# RUN RAMPED ANNEAL
run 50000
PPPM initialization ...
  G vector (1/distance) = 0.186238
  grid = 8 8 8
  stencil order = 5
  estimated absolute RMS force accuracy = 0.00739281
  estimated relative force accuracy = 2.22632e-05
  3d grid and FFT values/proc = 343 8
Step Temp Volume Density TotEng PotEng E_bond E_angle E_dihed E_coul E_long E_vdwl Enthalpy Press
10000       100.0000000000     11324.3323775758         0.7846477026     -1273.1158055035     -1571.4948915085         8.4049445471        16.0347885600       -38.7040263225      2022.3412935284     -3100.7226138895      -478.8492779319     -1473.1882773010     -1211.4314397421
Averages over the last 26 of 51 rows, steps 35000 to 60000:
Temp Volume Density TotEng PotEng E_bond E_angle E_dihed E_coul E_long E_vdwl Enthalpy Press
248.078 10519.9 0.845921 -75.3556 -815.569 223.969 267.775 5.84018 2242.11 -3098.9 -456.365 -109.79 -218.613
Loop time of 65.1398 on 64 procs for 50000 steps with 1002 atoms

unfix anneal

# RUN EQUILIBRATION PHASE AT FINAL TEMP
fix anneal all npt temp 298.0 298.0 100.0 iso 1.0 1.0 1000.0
run 50000
PPPM initialization ...
  G vector (1/distance) = 0.186226
  grid = 8 8 8
  stencil order = 5
  estimated absolute RMS force accuracy = 0.00739689
  estimated relative force accuracy = 2.22755e-05
  3d grid and FFT values/proc = 343 8
Step Temp Volume Density TotEng PotEng E_bond E_angle E_dihed E_coul E_long E_vdwl Enthalpy Press
60000       281.0953008845     11330.6287068607         0.7842116809       258.8051728425      -579.9244167397       283.0032582479       325.7757713245        11.0674716836      2324.8573207621     -3099.3932659568      -425.2349728009       296.0847747096       225.6011804809
Averages over the last 26 of 51 rows, steps 85000 to 110000:
Temp Volume Density TotEng PotEng E_bond E_angle E_dihed E_coul E_long E_vdwl Enthalpy Press
296.537 11258.9 0.789465 280.041 -604.764 269.083 318.112 10.6704 2322.44 -3097.95 -427.119 314.261 216.797
Loop time of 61.2456 on 64 procs for 50000 steps with 1002 atoms

unfix anneal
undump anneal

# RETURN TO LESS FREQUENT NEIGHBOR BUILDS
neigh_modify every 1 delay 10 check yes one 10000 # More relaxed rebuild criteria can be used

#===========================================================
# RUN EQUILIBRIUM SIM
#===========================================================

# UPDATE RUN PARAMETERS AND CREATE FIX
fix equil all npt temp 298.0 298.0 100.0 iso 1.0 1.0 1000.0

# CREATE COORDINATE DUMPS FOR EQUILIBRIUM
dump equil all custom 1000 equil.lammpstrj id type x y z mol
dump_modify equil sort id format float %20.10g

# RUN EQUIL
run		100000
PPPM initialization ...
  G vector (1/distance) = 0.186534
  grid = 8 8 8
  stencil order = 5
  estimated absolute RMS force accuracy = 0.0072873
  estimated relative force accuracy = 2.19455e-05
  3d grid and FFT values/proc = 343 8
Step Temp Volume Density TotEng PotEng E_bond E_angle E_dihed E_coul E_long E_vdwl Enthalpy Press
110000       293.6653047279     11161.5760939753         0.7960893075       285.3866336032      -590.8492185576       278.7361093908       332.5034807217        15.8526922887      2318.8656924259     -3103.8238325446      -432.9833608401       171.5777117033      -699.1572983805
Averages over the last 51 of 101 rows, steps 160000 to 210000:
Temp Volume Density TotEng PotEng E_bond E_angle E_dihed E_coul E_long E_vdwl Enthalpy Press
296.986 11225.3 0.791793 287.015 -599.128 270.375 324.183 11.2031 2325.57 -3103.35 -427.11 276.222 -60.6805
Loop time of 61.1614 on 64 procs for 100000 steps with 1002 atoms

unfix equil
undump equil

# WRITE RESTART FILES, CLEANUP, AND EXIT
write_restart   md-12.end.restart
PPPM initialization ...
  G vector (1/distance) = 0.186569
  grid = 8 8 8
  stencil order = 5
  estimated absolute RMS force accuracy = 0.00727475
  estimated relative force accuracy = 2.19077e-05
  3d grid and FFT values/proc = 343 8
write_data      md-12.end.data pair ii
PPPM initialization ...
  G vector (1/distance) = 0.186569
  grid = 8 8 8
  stencil order = 5
  estimated absolute RMS force accuracy = 0.00727475
  estimated relative force accuracy = 2.19077e-05
  3d grid and FFT values/proc = 343 8
unfix		averages
