#===========================================================
# GENERAL PROCEDURES
#===========================================================
units		real	# g/mol, angstroms, fs, kcal/mol, K, atm, charge*angstrom
dimension	3	# 3 dimensional simulation
newton		on	# use Newton's 3rd law
boundary	p p p	# periodic boundary conditions
atom_style	full    # molecular + charge

#===========================================================
# FORCE FIELD DEFINITION
#===========================================================
special_bonds  lj   0.0 0.0 0.0  coul 0.0 0.0 0.0     # NO     1-4 LJ/COUL interactions
pair_style     hybrid lj/cut/coul/long 14.0 14.0 # outer_LJ outer_Coul (cutoff values, see LAMMPS Doc)
kspace_style   pppm 0.0001          # long-range electrostatics sum method
bond_style     harmonic             # parameters needed: k_bond, r0
angle_style    harmonic             # parameters needed: k_theta, theta0
dihedral_style hybrid opls            # parameters needed: V1, V2, V3, V4
pair_modify    shift yes mix arithmetic       # using Lorenz-Berthelot mixing rules

#===========================================================
# SETUP SIMULATIONS
#===========================================================

# READ IN COEFFICIENTS/COORDINATES/TOPOLOGY
read_data md-17.data
  orthogonal box = (-11.2898 -11.2898 -11.2898) to (11.2898 11.2898 11.2898)
  reading atoms ...
  1002 atoms
  reading velocities ...
  1002 velocities
  scanning bonds ...
  scanning angles ...
  scanning dihedrals ...
  reading bonds ...
  835 bonds
  reading angles ...
  1169 angles
  reading dihedrals ...
  501 dihedrals
include md-17.in.settings
     # Non-bonded interactions (pair-wise)
     pair_coeff           1          1          lj/cut/coul/long     0.008476             2.469949
     pair_coeff           1          2          lj/cut/coul/long     0.001921             2.249702
     pair_coeff           1          3          lj/cut/coul/long     0.027043             3.130997
     pair_coeff           1          4          lj/cut/coul/long     0.036999             2.728879
     pair_coeff           2          2          lj/cut/coul/long     0.001000             1.783952
     pair_coeff           2          3          lj/cut/coul/long     0.003903             3.074558
     pair_coeff           2          4          lj/cut/coul/long     0.006267             2.609221
     pair_coeff           3          3          lj/cut/coul/long     0.203530             3.440012
     pair_coeff           3          4          lj/cut/coul/long     0.179320             3.226401
     pair_coeff           4          4          lj/cut/coul/long     0.202563             2.903273

     # Stretching interactions
     bond_coeff           1           366.904251           1.096103
     bond_coeff           2           612.219900           0.957501
     bond_coeff           3           368.709924           1.411527

     # Bending interactions
     angle_coeff          1           40.926667            108.205025
     angle_coeff          2           61.328715            112.232133
     angle_coeff          3           49.873049            108.741688

     # Dihedral interactions
     dihedral_coeff       1          opls                  0.105414            -0.205941             0.372587            -0.070860

# SET RUN PARAMETERS
timestep	1.0		# fs
run_style	verlet 		# Velocity-Verlet integrator
neigh_modify every 1 delay 0 check no one 10000 # More relaxed rebuild criteria can be used

#===========================================================
# RUN CONSTRAINED RELAXATION
#===========================================================

# SET OUTPUTS
thermo_style    custom step temp vol density etotal pe ebond eangle edihed ecoul elong evdwl enthalpy press
thermo_modify   format float %20.10f
thermo 1000

# DECLARE RELEVANT OUTPUT VARIABLES
variable        my_step equal   step
variable        my_temp equal   temp
variable        my_rho  equal   density
variable        my_pe   equal   pe
variable        my_ebon equal   ebond
variable        my_eang equal   eangle
variable        my_edih equal   edihed
variable        my_evdw equal   evdwl
variable        my_eel  equal   (ecoul+elong)
variable        my_ent  equal   enthalpy
variable        my_P    equal   press
variable        my_vol  equal   vol

fix  averages all ave/time 100 10 1000 v_my_temp v_my_rho v_my_vol v_my_pe v_my_edih v_my_evdw v_my_eel v_my_ent v_my_P file thermo.avg

# INITIALIZE VELOCITIES AND CREATE THE CONSTRAINED RELAXATION FIX
velocity        all create 100.0 77028 mom yes rot yes

fix relax all nve/limit 0.01
run             10000
PPPM initialization ...
  G vector (1/distance) = 0.185902
  grid = 8 8 8
  stencil order = 5
  estimated absolute RMS force accuracy = 0.00751438
  estimated relative force accuracy = 2.26293e-05
  3d grid and FFT values/proc = 343 8
  update every 1 steps, delay 0 steps, check no
Step Temp Volume Density TotEng PotEng E_bond E_angle E_dihed E_coul E_long E_vdwl Enthalpy Press
0       100.0000000000     11511.9709875890         0.7718583893      -287.8676279510      -586.2467139560       265.5901032895       315.4482614650        16.0938091884      2286.4840730248     -3093.2137062030      -376.6492547206      -723.7016893338     -2595.9456312256
Averages over the last 6 of 11 rows, steps 5000 to 10000:
Temp Volume Density TotEng PotEng E_bond E_angle E_dihed E_coul E_long E_vdwl Enthalpy Press
12.8239 11512 0.771858 -1499.72 -1537.98 8.41965 16.8909 -37.5721 2023.95 -3094.55 -455.123 -1831.23 -1974.55
Loop time of 12.6684 on 64 procs for 10000 steps with 1002 atoms

unfix relax

#===========================================================
# RUN RAMPED ANNEAL
#===========================================================

# REINITIALIZE THE VELOCITIES AND CREATE THE ANNEALING FIX
velocity        all create 100.0 77028 mom yes rot yes

fix mom all momentum 1000 linear 1 1 1 angular # Zero out system linear and angular momentum every ps
fix anneal all npt temp 100.0 298.0 100.0 iso 1.0 1.0 1000.0

# CREATE COORDINATE DUMPS FOR ANNEAL
dump anneal all custom 1000 anneal.lammpstrj id type x y z mol
dump_modify anneal sort id format float %20.10g

# RUN RAMPED ANNEAL
run 50000
PPPM initialization ...
  G vector (1/distance) = 0.185902
  grid = 8 8 8
  stencil order = 5
  estimated absolute RMS force accuracy = 0.00751438
  estimated relative force accuracy = 2.26293e-05
  3d grid and FFT values/proc = 343 8
Step Temp Volume Density TotEng PotEng E_bond E_angle E_dihed E_coul E_long E_vdwl Enthalpy Press
10000       100.0000000000     11511.9709875890         0.7718583893     -1251.5904926619     -1549.9695786669         8.6235207233        16.7948238993       -38.5581802067      2017.8386331112     -3094.6491521940      -460.0192240001     -1385.4195775766      -797.1222515578
Averages over the last 26 of 51 rows, steps 35000 to 60000:
Temp Volume Density TotEng PotEng E_bond E_angle E_dihed E_coul E_long E_vdwl Enthalpy Press
247.815 10667.7 0.834271 -38.9528 -778.381 219.481 268.055 6.40989 2253.84 -3093.18 -432.98 -61.2665 -146.026
Loop time of 67.9587 on 64 procs for 50000 steps with 1002 atoms

unfix anneal

# RUN EQUILIBRATION PHASE AT FINAL TEMP
fix anneal all npt temp 298.0 298.0 100.0 iso 1.0 1.0 1000.0
run 50000
PPPM initialization ...
  G vector (1/distance) = 0.185716
  grid = 8 8 8
  stencil order = 5
  estimated absolute RMS force accuracy = 0.00758212
  estimated relative force accuracy = 2.28333e-05
  3d grid and FFT values/proc = 343 8
Step Temp Volume Density TotEng PotEng E_bond E_angle E_dihed E_coul E_long E_vdwl Enthalpy Press
60000       292.0099038104     11616.5793634760         0.7649077328       355.7329245663      -515.5635574673       292.9630041124       325.6149732209        11.9768384899      2324.7217540912     -3088.8709482302      -381.9691791515       551.8712534150      1157.7327463704
Averages over the last 26 of 51 rows, steps 85000 to 110000:
Temp Volume Density TotEng PotEng E_bond E_angle E_dihed E_coul E_long E_vdwl Enthalpy Press
298.177 11310.8 0.785995 301.936 -587.763 262.195 319.556 11.783 2311.88 -3089.81 -403.359 327.44 151.651
Loop time of 59.3913 on 64 procs for 50000 steps with 1002 atoms

unfix anneal
undump anneal

# RETURN TO LESS FREQUENT NEIGHBOR BUILDS
neigh_modify every 1 delay 10 check yes one 10000 # More relaxed rebuild criteria can be used

#===========================================================
# RUN EQUILIBRIUM SIM
#===========================================================

# UPDATE RUN PARAMETERS AND CREATE FIX
fix equil all npt temp 298.0 298.0 100.0 iso 1.0 1.0 1000.0

# CREATE COORDINATE DUMPS FOR EQUILIBRIUM
dump equil all custom 1000 equil.lammpstrj id type x y z mol
dump_modify equil sort id format float %20.10g

# RUN EQUIL
run		100000
PPPM initialization ...
  G vector (1/distance) = 0.186193
  grid = 8 8 8
  stencil order = 5
  estimated absolute RMS force accuracy = 0.00740879
  estimated relative force accuracy = 2.23114e-05
  3d grid and FFT values/proc = 343 8
Step Temp Volume Density TotEng PotEng E_bond E_angle E_dihed E_coul E_long E_vdwl Enthalpy Press
110000       291.7475201076     11348.9869344216         0.7829431327       258.7410967058      -611.7724872335       253.6985615833       319.0098480339         9.8709459634      2309.2628998480     -3097.7015855598      -405.9131571023       323.0876433370       388.7695649592
Averages over the last 51 of 101 rows, steps 160000 to 210000:
Temp Volume Density TotEng PotEng E_bond E_angle E_dihed E_coul E_long E_vdwl Enthalpy Press
298.405 11324.9 0.784892 318.948 -571.43 263.908 321.969 10.9792 2332.57 -3097.37 -403.484 345.829 166.349
Loop time of 59.594 on 64 procs for 100000 steps with 1002 atoms

unfix equil
undump equil

# WRITE RESTART FILES, CLEANUP, AND EXIT
write_restart   md-17.end.restart
PPPM initialization ...
  G vector (1/distance) = 0.185922
  grid = 8 8 8
  stencil order = 5
  estimated absolute RMS force accuracy = 0.00750692
  estimated relative force accuracy = 2.26069e-05
  3d grid and FFT values/proc = 343 8
write_data      md-17.end.data pair ii
PPPM initialization ...
  G vector (1/distance) = 0.185922
  grid = 8 8 8
  stencil order = 5
  estimated absolute RMS force accuracy = 0.00750692
  estimated relative force accuracy = 2.26069e-05
  3d grid and FFT values/proc = 343 8
unfix		averages
