#===========================================================
# GENERAL PROCEDURES
#===========================================================
units		real	# g/mol, angstroms, fs, kcal/mol, K, atm, charge*angstrom
dimension	3	# 3 dimensional simulation
newton		on	# use Newton's 3rd law
boundary	p p p	# periodic boundary conditions
atom_style	full    # molecular + charge

#===========================================================
# FORCE FIELD DEFINITION
#===========================================================
special_bonds  lj   0.0 0.0 0.0  coul 0.0 0.0 0.0     # NO     1-4 LJ/COUL interactions
pair_style     hybrid lj/cut/coul/long 14.0 14.0 # outer_LJ outer_Coul (cutoff values, see LAMMPS Doc)
kspace_style   pppm 0.0001          # long-range electrostatics sum method
bond_style     harmonic             # parameters needed: k_bond, r0
angle_style    harmonic             # parameters needed: k_theta, theta0
dihedral_style hybrid opls            # parameters needed: V1, V2, V3, V4
pair_modify    shift yes mix arithmetic       # using Lorenz-Berthelot mixing rules

#===========================================================
# SETUP SIMULATIONS
#===========================================================

# READ IN COEFFICIENTS/COORDINATES/TOPOLOGY
read_data md-20.data
  orthogonal box = (-11.2992 -11.2992 -11.2992) to (11.2992 11.2992 11.2992)
  reading atoms ...
  1002 atoms
  reading velocities ...
  1002 velocities
  scanning bonds ...
  scanning angles ...
  scanning dihedrals ...
  reading bonds ...
  835 bonds
  reading angles ...
  1169 angles
  reading dihedrals ...
  501 dihedrals
include md-20.in.settings
     # Non-bonded interactions (pair-wise)
     pair_coeff           1          1          lj/cut/coul/long     0.007849             2.469683
     pair_coeff           1          2          lj/cut/coul/long     0.001848             2.249393
     pair_coeff           1          3          lj/cut/coul/long     0.026070             3.130658
     pair_coeff           1          4          lj/cut/coul/long     0.035624             2.728157
     pair_coeff           2          2          lj/cut/coul/long     0.001000             1.783337
     pair_coeff           2          3          lj/cut/coul/long     0.003908             3.074211
     pair_coeff           2          4          lj/cut/coul/long     0.006268             2.608373
     pair_coeff           3          3          lj/cut/coul/long     0.204253             3.439640
     pair_coeff           3          4          lj/cut/coul/long     0.179627             3.225867
     pair_coeff           4          4          lj/cut/coul/long     0.202662             2.902332

     # Stretching interactions
     bond_coeff           1           366.904251           1.096103
     bond_coeff           2           612.219900           0.957501
     bond_coeff           3           368.709924           1.411527

     # Bending interactions
     angle_coeff          1           40.926667            108.205025
     angle_coeff          2           61.328715            112.232133
     angle_coeff          3           49.873049            108.741688

     # Dihedral interactions
     dihedral_coeff       1          opls                  0.105414            -0.205941             0.372587            -0.070860

# SET RUN PARAMETERS
timestep	1.0		# fs
run_style	verlet 		# Velocity-Verlet integrator
neigh_modify every 1 delay 0 check no one 10000 # More relaxed rebuild criteria can be used

#===========================================================
# RUN CONSTRAINED RELAXATION
#===========================================================

# SET OUTPUTS
thermo_style    custom step temp vol density etotal pe ebond eangle edihed ecoul elong evdwl enthalpy press
thermo_modify   format float %20.10f
thermo 1000

# DECLARE RELEVANT OUTPUT VARIABLES
variable        my_step equal   step
variable        my_temp equal   temp
variable        my_rho  equal   density
variable        my_pe   equal   pe
variable        my_ebon equal   ebond
variable        my_eang equal   eangle
variable        my_edih equal   edihed
variable        my_evdw equal   evdwl
variable        my_eel  equal   (ecoul+elong)
variable        my_ent  equal   enthalpy
variable        my_P    equal   press
variable        my_vol  equal   vol

fix  averages all ave/time 100 10 1000 v_my_temp v_my_rho v_my_vol v_my_pe v_my_edih v_my_evdw v_my_eel v_my_ent v_my_P file thermo.avg

# INITIALIZE VELOCITIES AND CREATE THE CONSTRAINED RELAXATION FIX
velocity        all create 100.0 57314 mom yes rot yes

fix relax all nve/limit 0.01
run             10000
PPPM initialization ...
  G vector (1/distance) = 0.18585
  grid = 8 8 8
  stencil order = 5
  estimated absolute RMS force accuracy = 0.00753302
  estimated relative force accuracy = 2.26855e-05
  3d grid and FFT values/proc = 343 8
  update every 1 steps, delay 0 steps, check no
Step Temp Volume Density TotEng PotEng E_bond E_angle E_dihed E_coul E_long E_vdwl Enthalpy Press
0       100.0000000000     11540.7517762495         0.7699334979      -230.4260614442      -528.8051474492       274.4143385825       339.6271013953         8.3008929172      2347.1590460537     -3091.4704850317      -406.8360413663      -640.4946629865     -2436.3884254826
Averages over the last 6 of 11 rows, steps 5000 to 10000:
Temp Volume Density TotEng PotEng E_bond E_angle E_dihed E_coul E_long E_vdwl Enthalpy Press
13.3497 11540.8 0.769933 -1486.04 -1525.87 8.50643 16.4842 -37.9954 2018.94 -3093.88 -437.928 -1860.6 -2225.42
Loop time of 11.3859 on 64 procs for 10000 steps with 1002 atoms

unfix relax

#===========================================================
# RUN RAMPED ANNEAL
#===========================================================

# REINITIALIZE THE VELOCITIES AND CREATE THE ANNEALING FIX
velocity        all create 100.0 57314 mom yes rot yes

fix mom all momentum 1000 linear 1 1 1 angular # Zero out system linear and angular momentum every ps
fix anneal all npt temp 100.0 298.0 100.0 iso 1.0 1.0 1000.0

# CREATE COORDINATE DUMPS FOR ANNEAL
dump anneal all custom 1000 anneal.lammpstrj id type x y z mol
dump_modify anneal sort id format float %20.10g

# RUN RAMPED ANNEAL
run 50000
PPPM initialization ...
  G vector (1/distance) = 0.18585
  grid = 8 8 8
  stencil order = 5
  estimated absolute RMS force accuracy = 0.00753302
  estimated relative force accuracy = 2.26855e-05
  3d grid and FFT values/proc = 343 8
Step Temp Volume Density TotEng PotEng E_bond E_angle E_dihed E_coul E_long E_vdwl Enthalpy Press
10000       100.0000000000     11540.7517762495         0.7699334979     -1238.8452216698     -1537.2243076748         8.7612786255        16.5674599698       -38.4685301780      2027.4187609514     -3093.5783071512      -457.9249698923     -1510.1690888157     -1612.0481475174
Averages over the last 26 of 51 rows, steps 35000 to 60000:
Temp Volume Density TotEng PotEng E_bond E_angle E_dihed E_coul E_long E_vdwl Enthalpy Press
248.416 10568.3 0.84151 -40.782 -782.002 222.687 267.055 5.48603 2243.63 -3092.58 -428.277 -25.9459 87.3588
Loop time of 62.2161 on 64 procs for 50000 steps with 1002 atoms

unfix anneal

# RUN EQUILIBRATION PHASE AT FINAL TEMP
fix anneal all npt temp 298.0 298.0 100.0 iso 1.0 1.0 1000.0
run 50000
PPPM initialization ...
  G vector (1/distance) = 0.186575
  grid = 8 8 8
  stencil order = 5
  estimated absolute RMS force accuracy = 0.00727265
  estimated relative force accuracy = 2.19014e-05
  3d grid and FFT values/proc = 343 8
Step Temp Volume Density TotEng PotEng E_bond E_angle E_dihed E_coul E_long E_vdwl Enthalpy Press
60000       314.5575480603     11138.9947065484         0.7977031696       336.6690502227      -601.9048866393       248.5094152912       329.9801063556         7.7925374776      2335.2901620763     -3105.0820280904      -418.3950797495       426.8438129226       555.0896390764
Averages over the last 26 of 51 rows, steps 85000 to 110000:
Temp Volume Density TotEng PotEng E_bond E_angle E_dihed E_coul E_long E_vdwl Enthalpy Press
300.336 11434 0.77735 333.63 -562.51 258.193 317.775 10.8968 2347.13 -3103.88 -392.628 403.015 423.439
Loop time of 57.6802 on 64 procs for 50000 steps with 1002 atoms

unfix anneal
undump anneal

# RETURN TO LESS FREQUENT NEIGHBOR BUILDS
neigh_modify every 1 delay 10 check yes one 10000 # More relaxed rebuild criteria can be used

#===========================================================
# RUN EQUILIBRIUM SIM
#===========================================================

# UPDATE RUN PARAMETERS AND CREATE FIX
fix equil all npt temp 298.0 298.0 100.0 iso 1.0 1.0 1000.0

# CREATE COORDINATE DUMPS FOR EQUILIBRIUM
dump equil all custom 1000 equil.lammpstrj id type x y z mol
dump_modify equil sort id format float %20.10g

# RUN EQUIL
run		100000
PPPM initialization ...
  G vector (1/distance) = 0.186122
  grid = 8 8 8
  stencil order = 5
  estimated absolute RMS force accuracy = 0.0074343
  estimated relative force accuracy = 2.23882e-05
  3d grid and FFT values/proc = 343 8
Step Temp Volume Density TotEng PotEng E_bond E_angle E_dihed E_coul E_long E_vdwl Enthalpy Press
110000       308.8851496439     11388.3482847264         0.7802370600       380.3542342528      -541.2944520600       272.2002643998       320.8162989860         6.9502843649      2339.8252969864     -3097.2122348692      -383.8743619278       488.7677845400       652.7500847237
Averages over the last 51 of 101 rows, steps 160000 to 210000:
Temp Volume Density TotEng PotEng E_bond E_angle E_dihed E_coul E_long E_vdwl Enthalpy Press
297.97 11381.5 0.780979 319.914 -569.166 265.157 315.406 12.0132 2331.12 -3096.09 -396.775 344.902 156.473
Loop time of 59.2761 on 64 procs for 100000 steps with 1002 atoms

unfix equil
undump equil

# WRITE RESTART FILES, CLEANUP, AND EXIT
write_restart   md-20.end.restart
PPPM initialization ...
  G vector (1/distance) = 0.186414
  grid = 8 8 8
  stencil order = 5
  estimated absolute RMS force accuracy = 0.00732983
  estimated relative force accuracy = 2.20736e-05
  3d grid and FFT values/proc = 343 8
write_data      md-20.end.data pair ii
PPPM initialization ...
  G vector (1/distance) = 0.186414
  grid = 8 8 8
  stencil order = 5
  estimated absolute RMS force accuracy = 0.00732983
  estimated relative force accuracy = 2.20736e-05
  3d grid and FFT values/proc = 343 8
unfix		averages
