#===========================================================
# GENERAL PROCEDURES
#===========================================================
units		real	# g/mol, angstroms, fs, kcal/mol, K, atm, charge*angstrom
dimension	3	# 3 dimensional simulation
newton		on	# use Newton's 3rd law
boundary	p p p	# periodic boundary conditions
atom_style	full    # molecular + charge

#===========================================================
# FORCE FIELD DEFINITION
#===========================================================
special_bonds  lj   0.0 0.0 0.0  coul 0.0 0.0 0.0     # NO     1-4 LJ/COUL interactions
pair_style     hybrid lj/cut/coul/long 14.0 14.0 # outer_LJ outer_Coul (cutoff values, see LAMMPS Doc)
kspace_style   pppm 0.0001          # long-range electrostatics sum method
bond_style     harmonic             # parameters needed: k_bond, r0
angle_style    harmonic             # parameters needed: k_theta, theta0
dihedral_style hybrid opls            # parameters needed: V1, V2, V3, V4
pair_modify    shift yes mix arithmetic       # using Lorenz-Berthelot mixing rules

#===========================================================
# SETUP SIMULATIONS
#===========================================================

# READ IN COEFFICIENTS/COORDINATES/TOPOLOGY
read_data md-19.data
  orthogonal box = (-11.1744 -11.1744 -11.1744) to (11.1744 11.1744 11.1744)
  reading atoms ...
  1002 atoms
  reading velocities ...
  1002 velocities
  scanning bonds ...
  scanning angles ...
  scanning dihedrals ...
  reading bonds ...
  835 bonds
  reading angles ...
  1169 angles
  reading dihedrals ...
  501 dihedrals
include md-19.in.settings
     # Non-bonded interactions (pair-wise)
     pair_coeff           1          1          lj/cut/coul/long     0.008205             2.469856
     pair_coeff           1          2          lj/cut/coul/long     0.001889             2.249520
     pair_coeff           1          3          lj/cut/coul/long     0.026647             3.130603
     pair_coeff           1          4          lj/cut/coul/long     0.036364             2.727439
     pair_coeff           2          2          lj/cut/coul/long     0.001000             1.783267
     pair_coeff           2          3          lj/cut/coul/long     0.003906             3.074119
     pair_coeff           2          4          lj/cut/coul/long     0.006260             2.607403
     pair_coeff           3          3          lj/cut/coul/long     0.204058             3.439537
     pair_coeff           3          4          lj/cut/coul/long     0.179052             3.225463
     pair_coeff           4          4          lj/cut/coul/long     0.201764             2.901201

     # Stretching interactions
     bond_coeff           1           366.904251           1.096103
     bond_coeff           2           612.219900           0.957501
     bond_coeff           3           368.709924           1.411527

     # Bending interactions
     angle_coeff          1           40.926667            108.205025
     angle_coeff          2           61.328715            112.232133
     angle_coeff          3           49.873049            108.741688

     # Dihedral interactions
     dihedral_coeff       1          opls                  0.105414            -0.205941             0.372587            -0.070860

# SET RUN PARAMETERS
timestep	1.0		# fs
run_style	verlet 		# Velocity-Verlet integrator
neigh_modify every 1 delay 0 check no one 10000 # More relaxed rebuild criteria can be used

#===========================================================
# RUN CONSTRAINED RELAXATION
#===========================================================

# SET OUTPUTS
thermo_style    custom step temp vol density etotal pe ebond eangle edihed ecoul elong evdwl enthalpy press
thermo_modify   format float %20.10f
thermo 1000

# DECLARE RELEVANT OUTPUT VARIABLES
variable        my_step equal   step
variable        my_temp equal   temp
variable        my_rho  equal   density
variable        my_pe   equal   pe
variable        my_ebon equal   ebond
variable        my_eang equal   eangle
variable        my_edih equal   edihed
variable        my_evdw equal   evdwl
variable        my_eel  equal   (ecoul+elong)
variable        my_ent  equal   enthalpy
variable        my_P    equal   press
variable        my_vol  equal   vol

fix  averages all ave/time 100 10 1000 v_my_temp v_my_rho v_my_vol v_my_pe v_my_edih v_my_evdw v_my_eel v_my_ent v_my_P file thermo.avg

# INITIALIZE VELOCITIES AND CREATE THE CONSTRAINED RELAXATION FIX
velocity        all create 100.0 25070 mom yes rot yes

fix relax all nve/limit 0.01
run             10000
PPPM initialization ...
  G vector (1/distance) = 0.186532
  grid = 8 8 8
  stencil order = 5
  estimated absolute RMS force accuracy = 0.00728782
  estimated relative force accuracy = 2.19471e-05
  3d grid and FFT values/proc = 343 8
  update every 1 steps, delay 0 steps, check no
Step Temp Volume Density TotEng PotEng E_bond E_angle E_dihed E_coul E_long E_vdwl Enthalpy Press
0       100.0000000000     11162.3896896104         0.7960312828      -251.8476463104      -550.2267323154       286.4593223883       324.6036840121        16.9133271590      2303.8667760657     -3102.3300088587      -379.7398330818      -422.5533762491     -1048.6124977530
Averages over the last 6 of 11 rows, steps 5000 to 10000:
Temp Volume Density TotEng PotEng E_bond E_angle E_dihed E_coul E_long E_vdwl Enthalpy Press
13.6996 11162.4 0.796031 -1507.75 -1548.62 8.55146 16.6874 -37.5509 2019.76 -3104.92 -451.147 -1851.36 -2110.74
Loop time of 11.9947 on 64 procs for 10000 steps with 1002 atoms

unfix relax

#===========================================================
# RUN RAMPED ANNEAL
#===========================================================

# REINITIALIZE THE VELOCITIES AND CREATE THE ANNEALING FIX
velocity        all create 100.0 25070 mom yes rot yes

fix mom all momentum 1000 linear 1 1 1 angular # Zero out system linear and angular momentum every ps
fix anneal all npt temp 100.0 298.0 100.0 iso 1.0 1.0 1000.0

# CREATE COORDINATE DUMPS FOR ANNEAL
dump anneal all custom 1000 anneal.lammpstrj id type x y z mol
dump_modify anneal sort id format float %20.10g

# RUN RAMPED ANNEAL
run 50000
PPPM initialization ...
  G vector (1/distance) = 0.186532
  grid = 8 8 8
  stencil order = 5
  estimated absolute RMS force accuracy = 0.00728782
  estimated relative force accuracy = 2.19471e-05
  3d grid and FFT values/proc = 343 8
Step Temp Volume Density TotEng PotEng E_bond E_angle E_dihed E_coul E_long E_vdwl Enthalpy Press
10000       100.0000000000     11162.3896896104         0.7960312828     -1261.5512704000     -1559.9303564050         8.4340260355        16.8290998808       -37.8152157921      2014.3824010372     -3104.9934345647      -456.7672330017     -1378.7318554286      -719.8178174753
Averages over the last 26 of 51 rows, steps 35000 to 60000:
Temp Volume Density TotEng PotEng E_bond E_angle E_dihed E_coul E_long E_vdwl Enthalpy Press
248.565 10675.3 0.833509 -30.3873 -772.052 218.657 270.829 7.18612 2255.54 -3103.88 -420.392 14.3917 283.291
Loop time of 62.7122 on 64 procs for 50000 steps with 1002 atoms

unfix anneal

# RUN EQUILIBRATION PHASE AT FINAL TEMP
fix anneal all npt temp 298.0 298.0 100.0 iso 1.0 1.0 1000.0
run 50000
PPPM initialization ...
  G vector (1/distance) = 0.186175
  grid = 8 8 8
  stencil order = 5
  estimated absolute RMS force accuracy = 0.00741521
  estimated relative force accuracy = 2.23307e-05
  3d grid and FFT values/proc = 343 8
Step Temp Volume Density TotEng PotEng E_bond E_angle E_dihed E_coul E_long E_vdwl Enthalpy Press
60000       313.6896589334     11358.8844270713         0.7822609201       385.1721403885      -550.8121968292       283.9738625043       312.7878108388         6.3568384391      2340.0945560025     -3097.0335565974      -396.9917080163       344.3537442759      -246.4020777965
Averages over the last 26 of 51 rows, steps 85000 to 110000:
Temp Volume Density TotEng PotEng E_bond E_angle E_dihed E_coul E_long E_vdwl Enthalpy Press
300.093 11461.3 0.775564 333.234 -562.18 264.941 319.508 12.2059 2329.77 -3097.09 -391.509 218.326 -685.406
Loop time of 59.8479 on 64 procs for 50000 steps with 1002 atoms

unfix anneal
undump anneal

# RETURN TO LESS FREQUENT NEIGHBOR BUILDS
neigh_modify every 1 delay 10 check yes one 10000 # More relaxed rebuild criteria can be used

#===========================================================
# RUN EQUILIBRIUM SIM
#===========================================================

# UPDATE RUN PARAMETERS AND CREATE FIX
fix equil all npt temp 298.0 298.0 100.0 iso 1.0 1.0 1000.0

# CREATE COORDINATE DUMPS FOR EQUILIBRIUM
dump equil all custom 1000 equil.lammpstrj id type x y z mol
dump_modify equil sort id format float %20.10g

# RUN EQUIL
run		100000
PPPM initialization ...
  G vector (1/distance) = 0.186545
  grid = 8 8 8
  stencil order = 5
  estimated absolute RMS force accuracy = 0.00728317
  estimated relative force accuracy = 2.1933e-05
  3d grid and FFT values/proc = 343 8
Step Temp Volume Density TotEng PotEng E_bond E_angle E_dihed E_coul E_long E_vdwl Enthalpy Press
110000       319.0276069094     11155.2082200640         0.7965437496       392.8428804183      -559.0687771816       254.0603264561       330.7750613514        13.9432611394      2348.0428987978     -3103.8322229906      -402.0581019357       518.2274559267       770.7092004432
Averages over the last 51 of 101 rows, steps 160000 to 210000:
Temp Volume Density TotEng PotEng E_bond E_angle E_dihed E_coul E_long E_vdwl Enthalpy Press
295.446 11302.3 0.786402 305.252 -576.298 261.237 322.472 11.7872 2328 -3103.26 -396.533 330.002 154.248
Loop time of 61.6935 on 64 procs for 100000 steps with 1002 atoms

unfix equil
undump equil

# WRITE RESTART FILES, CLEANUP, AND EXIT
write_restart   md-19.end.restart
PPPM initialization ...
  G vector (1/distance) = 0.18585
  grid = 8 8 8
  stencil order = 5
  estimated absolute RMS force accuracy = 0.00753302
  estimated relative force accuracy = 2.26855e-05
  3d grid and FFT values/proc = 343 8
write_data      md-19.end.data pair ii
PPPM initialization ...
  G vector (1/distance) = 0.18585
  grid = 8 8 8
  stencil order = 5
  estimated absolute RMS force accuracy = 0.00753302
  estimated relative force accuracy = 2.26855e-05
  3d grid and FFT values/proc = 343 8
unfix		averages
