#===========================================================
# GENERAL PROCEDURES
#===========================================================
units		real	# g/mol, angstroms, fs, kcal/mol, K, atm, charge*angstrom
dimension	3	# 3 dimensional simulation
newton		on	# use Newton's 3rd law
boundary	p p p	# periodic boundary conditions
atom_style	full    # molecular + charge

#===========================================================
# FORCE FIELD DEFINITION
#===========================================================
special_bonds  lj   0.0 0.0 0.0  coul 0.0 0.0 0.0     # NO     1-4 LJ/COUL interactions
pair_style     hybrid lj/cut/coul/long 14.0 14.0 # outer_LJ outer_Coul (cutoff values, see LAMMPS Doc)
kspace_style   pppm 0.0001          # long-range electrostatics sum method
bond_style     harmonic             # parameters needed: k_bond, r0
angle_style    harmonic             # parameters needed: k_theta, theta0
dihedral_style hybrid opls            # parameters needed: V1, V2, V3, V4
pair_modify    shift yes mix arithmetic       # using Lorenz-Berthelot mixing rules

#===========================================================
# SETUP SIMULATIONS
#===========================================================

# READ IN COEFFICIENTS/COORDINATES/TOPOLOGY
read_data md-6.data
  orthogonal box = (-11.2151 -11.2151 -11.2151) to (11.2151 11.2151 11.2151)
  reading atoms ...
  1002 atoms
  reading velocities ...
  1002 velocities
  scanning bonds ...
  scanning angles ...
  scanning dihedrals ...
  reading bonds ...
  835 bonds
  reading angles ...
  1169 angles
  reading dihedrals ...
  501 dihedrals
include md-6.in.settings
     # Non-bonded interactions (pair-wise)
     pair_coeff           1          1          lj/cut/coul/long     0.024327             2.432354
     pair_coeff           1          2          lj/cut/coul/long     0.004430             2.289075
     pair_coeff           1          3          lj/cut/coul/long     0.043609             3.102954
     pair_coeff           1          4          lj/cut/coul/long     0.059084             2.649092
     pair_coeff           2          2          lj/cut/coul/long     0.001000             2.078552
     pair_coeff           2          3          lj/cut/coul/long     0.005938             3.065192
     pair_coeff           2          4          lj/cut/coul/long     0.009149             2.561375
     pair_coeff           3          3          lj/cut/coul/long     0.190576             3.412102
     pair_coeff           3          4          lj/cut/coul/long     0.153011             3.178464
     pair_coeff           4          4          lj/cut/coul/long     0.170961             2.802159

     # Stretching interactions
     bond_coeff           1           366.904251           1.096103
     bond_coeff           2           612.219900           0.957501
     bond_coeff           3           368.709924           1.411527

     # Bending interactions
     angle_coeff          1           40.926667            108.205025
     angle_coeff          2           61.328715            112.232133
     angle_coeff          3           49.873049            108.741688

     # Dihedral interactions
     dihedral_coeff       1          opls                  0.105414            -0.205941             0.372587            -0.070860

# SET RUN PARAMETERS
timestep	1.0		# fs
run_style	verlet 		# Velocity-Verlet integrator
neigh_modify every 1 delay 0 check no one 10000 # More relaxed rebuild criteria can be used

#===========================================================
# RUN CONSTRAINED RELAXATION
#===========================================================

# SET OUTPUTS
thermo_style    custom step temp vol density etotal pe ebond eangle edihed ecoul elong evdwl enthalpy press
thermo_modify   format float %20.10f
thermo 1000

# DECLARE RELEVANT OUTPUT VARIABLES
variable        my_step equal   step
variable        my_temp equal   temp
variable        my_rho  equal   density
variable        my_pe   equal   pe
variable        my_ebon equal   ebond
variable        my_eang equal   eangle
variable        my_edih equal   edihed
variable        my_evdw equal   evdwl
variable        my_eel  equal   (ecoul+elong)
variable        my_ent  equal   enthalpy
variable        my_P    equal   press
variable        my_vol  equal   vol

fix  averages all ave/time 100 10 1000 v_my_temp v_my_rho v_my_vol v_my_pe v_my_edih v_my_evdw v_my_eel v_my_ent v_my_P file thermo.avg

# INITIALIZE VELOCITIES AND CREATE THE CONSTRAINED RELAXATION FIX
velocity        all create 100.0 76692 mom yes rot yes

fix relax all nve/limit 0.01
run             10000
PPPM initialization ...
  G vector (1/distance) = 0.186309
  grid = 8 8 8
  stencil order = 5
  estimated absolute RMS force accuracy = 0.00736732
  estimated relative force accuracy = 2.21865e-05
  3d grid and FFT values/proc = 343 8
  update every 1 steps, delay 0 steps, check no
Step Temp Volume Density TotEng PotEng E_bond E_angle E_dihed E_coul E_long E_vdwl Enthalpy Press
0       100.0000000000     11285.0032809975         0.7873822597      -255.7690002697      -554.1480862747       265.1085388371       328.6576854461         7.7898896856      2442.0290970041     -3100.0187927709      -497.7145044767      -954.6608896572     -4246.5126432305
Averages over the last 6 of 11 rows, steps 5000 to 10000:
Temp Volume Density TotEng PotEng E_bond E_angle E_dihed E_coul E_long E_vdwl Enthalpy Press
12.9848 11285 0.787382 -1536.53 -1575.27 7.59734 17.2177 -37.0039 2021.14 -3101.39 -482.832 -1912.9 -2286.88
Loop time of 11.5218 on 64 procs for 10000 steps with 1002 atoms

unfix relax

#===========================================================
# RUN RAMPED ANNEAL
#===========================================================

# REINITIALIZE THE VELOCITIES AND CREATE THE ANNEALING FIX
velocity        all create 100.0 76692 mom yes rot yes

fix mom all momentum 1000 linear 1 1 1 angular # Zero out system linear and angular momentum every ps
fix anneal all npt temp 100.0 298.0 100.0 iso 1.0 1.0 1000.0

# CREATE COORDINATE DUMPS FOR ANNEAL
dump anneal all custom 1000 anneal.lammpstrj id type x y z mol
dump_modify anneal sort id format float %20.10g

# RUN RAMPED ANNEAL
run 50000
PPPM initialization ...
  G vector (1/distance) = 0.186309
  grid = 8 8 8
  stencil order = 5
  estimated absolute RMS force accuracy = 0.00736732
  estimated relative force accuracy = 2.21865e-05
  3d grid and FFT values/proc = 343 8
Step Temp Volume Density TotEng PotEng E_bond E_angle E_dihed E_coul E_long E_vdwl Enthalpy Press
10000       100.0000000000     11285.0032809975         0.7873822597     -1287.0998306322     -1585.4789166372         7.5138188954        17.6709428668       -36.2831875541      2013.6725899319     -3100.9511878473      -487.1018929299     -1445.5554717372      -962.7867965866
Averages over the last 26 of 51 rows, steps 35000 to 60000:
Temp Volume Density TotEng PotEng E_bond E_angle E_dihed E_coul E_long E_vdwl Enthalpy Press
249.435 10332.2 0.860975 -110.064 -854.327 217.99 274.323 5.78077 2225.68 -3100.15 -477.946 -194.008 -546.897
Loop time of 64.3523 on 64 procs for 50000 steps with 1002 atoms

unfix anneal

# RUN EQUILIBRATION PHASE AT FINAL TEMP
fix anneal all npt temp 298.0 298.0 100.0 iso 1.0 1.0 1000.0
run 50000
PPPM initialization ...
  G vector (1/distance) = 0.187171
  grid = 8 8 8
  stencil order = 5
  estimated absolute RMS force accuracy = 0.00706452
  estimated relative force accuracy = 2.12746e-05
  3d grid and FFT values/proc = 343 8
Step Temp Volume Density TotEng PotEng E_bond E_angle E_dihed E_coul E_long E_vdwl Enthalpy Press
60000       307.3600036822     10818.2581326502         0.8213532414       253.3760852591      -663.7218844727       261.2865344969       331.2468751351        16.0293582544      2275.6101871046     -3113.1450557833      -434.7497836804       140.7732365524      -713.7007423587
Averages over the last 26 of 51 rows, steps 85000 to 110000:
Temp Volume Density TotEng PotEng E_bond E_angle E_dihed E_coul E_long E_vdwl Enthalpy Press
296.868 11024.5 0.806259 238.907 -646.884 265.906 315.618 10.9765 2313.79 -3113.82 -439.354 199.007 -238.555
Loop time of 59.32 on 64 procs for 50000 steps with 1002 atoms

unfix anneal
undump anneal

# RETURN TO LESS FREQUENT NEIGHBOR BUILDS
neigh_modify every 1 delay 10 check yes one 10000 # More relaxed rebuild criteria can be used

#===========================================================
# RUN EQUILIBRIUM SIM
#===========================================================

# UPDATE RUN PARAMETERS AND CREATE FIX
fix equil all npt temp 298.0 298.0 100.0 iso 1.0 1.0 1000.0

# CREATE COORDINATE DUMPS FOR EQUILIBRIUM
dump equil all custom 1000 equil.lammpstrj id type x y z mol
dump_modify equil sort id format float %20.10g

# RUN EQUIL
run		100000
PPPM initialization ...
  G vector (1/distance) = 0.187611
  grid = 8 8 8
  stencil order = 5
  estimated absolute RMS force accuracy = 0.00691409
  estimated relative force accuracy = 2.08216e-05
  3d grid and FFT values/proc = 343 8
Step Temp Volume Density TotEng PotEng E_bond E_angle E_dihed E_coul E_long E_vdwl Enthalpy Press
110000       287.2072089495     10586.6713225233         0.8393206054       225.3537423542      -631.6125026498       284.9553630863       332.5086421874        11.2157918475      2309.1790060880     -3121.6827407683      -447.7885650907       210.1652573718       -98.3737295479
Averages over the last 51 of 101 rows, steps 160000 to 210000:
Temp Volume Density TotEng PotEng E_bond E_angle E_dihed E_coul E_long E_vdwl Enthalpy Press
297.032 11041.4 0.805041 245.914 -640.367 264.691 320.606 11.7826 2326.87 -3121.06 -443.258 252.303 43.6831
Loop time of 59.5393 on 64 procs for 100000 steps with 1002 atoms

unfix equil
undump equil

# WRITE RESTART FILES, CLEANUP, AND EXIT
write_restart   md-6.end.restart
PPPM initialization ...
  G vector (1/distance) = 0.187274
  grid = 8 8 8
  stencil order = 5
  estimated absolute RMS force accuracy = 0.00702905
  estimated relative force accuracy = 2.11678e-05
  3d grid and FFT values/proc = 343 8
write_data      md-6.end.data pair ii
PPPM initialization ...
  G vector (1/distance) = 0.187274
  grid = 8 8 8
  stencil order = 5
  estimated absolute RMS force accuracy = 0.00702905
  estimated relative force accuracy = 2.11678e-05
  3d grid and FFT values/proc = 343 8
unfix		averages
