#===========================================================
# GENERAL PROCEDURES
#===========================================================
units		real	# g/mol, angstroms, fs, kcal/mol, K, atm, charge*angstrom
dimension	3	# 3 dimensional simulation
newton		on	# use Newton's 3rd law
boundary	p p p	# periodic boundary conditions
atom_style	full    # molecular + charge

#===========================================================
# FORCE FIELD DEFINITION
#===========================================================
special_bonds  lj   0.0 0.0 0.0  coul 0.0 0.0 0.0     # NO     1-4 LJ/COUL interactions
pair_style     hybrid lj/cut/coul/long 14.0 14.0 # outer_LJ outer_Coul (cutoff values, see LAMMPS Doc)
kspace_style   pppm 0.0001          # long-range electrostatics sum method
bond_style     harmonic             # parameters needed: k_bond, r0
angle_style    harmonic             # parameters needed: k_theta, theta0
dihedral_style hybrid opls            # parameters needed: V1, V2, V3, V4
pair_modify    shift yes mix arithmetic       # using Lorenz-Berthelot mixing rules

#===========================================================
# SETUP SIMULATIONS
#===========================================================

# READ IN COEFFICIENTS/COORDINATES/TOPOLOGY
read_data md-3.data
  orthogonal box = (-22.3237 -22.3237 -22.3237) to (22.3237 22.3237 22.3237)
  reading atoms ...
  1002 atoms
  scanning bonds ...
  scanning angles ...
  scanning dihedrals ...
  reading bonds ...
  835 bonds
  reading angles ...
  1169 angles
  reading dihedrals ...
  501 dihedrals
include md-3.in.settings
     # Non-bonded interactions (pair-wise)
     pair_coeff           1          1          lj/cut/coul/long      0.044000             2.571134
     pair_coeff           1          2          lj/cut/coul/long      0.044000             2.571134
     pair_coeff           1          3          lj/cut/coul/long      0.067971             3.000992
     pair_coeff           1          4          lj/cut/coul/long      0.051381             2.844640
     pair_coeff           2          2          lj/cut/coul/long      0.044000             2.571134
     pair_coeff           2          3          lj/cut/coul/long      0.067971             3.000992
     pair_coeff           2          4          lj/cut/coul/long      0.051381             2.844640
     pair_coeff           3          3          lj/cut/coul/long      0.105000             3.430851
     pair_coeff           3          4          lj/cut/coul/long      0.079373             3.274498
     pair_coeff           4          4          lj/cut/coul/long      0.060000             3.118146

     # Stretching interactions
     bond_coeff           1           366.904251           1.096103
     bond_coeff           2           612.219900           0.957501
     bond_coeff           3           368.709924           1.411527

     # Bending interactions
     angle_coeff          1           40.926667            108.205025
     angle_coeff          2           61.328715            112.232133
     angle_coeff          3           49.873049            108.741688

     # Dihedral interactions
     dihedral_coeff       1          opls                  0.105414            -0.205941             0.372587            -0.070860

# SET RUN PARAMETERS
timestep	1.0		# fs
run_style	verlet 		# Velocity-Verlet integrator
neigh_modify every 1 delay 0 check no one 10000 # More relaxed rebuild criteria can be used

# Setting up fixes to scale the charges by 0.0
group charge_1 type 1
501 atoms in group charge_1
group charge_2 type 2
167 atoms in group charge_2
group charge_3 type 3
167 atoms in group charge_3
group charge_4 type 4
167 atoms in group charge_4
variable charge_1 equal 0.0
variable charge_2 equal 0.0
variable charge_3 equal 0.0
variable charge_4 equal -0.0
fix 1 charge_1 adapt 0 atom charge v_charge_1 reset yes
fix 2 charge_2 adapt 0 atom charge v_charge_2 reset yes
fix 3 charge_3 adapt 0 atom charge v_charge_3 reset yes
fix 4 charge_4 adapt 0 atom charge v_charge_4 reset yes

#===========================================================
# RUN CONSTRAINED RELAXATION
#===========================================================

# SET OUTPUTS
thermo_style    custom step temp vol density etotal pe ebond eangle edihed ecoul elong evdwl enthalpy press
thermo_modify   format float %20.10f
thermo 1000

# DECLARE RELEVANT OUTPUT VARIABLES
variable        my_step equal   step
variable        my_temp equal   temp
variable        my_rho  equal   density
variable        my_pe   equal   pe
variable        my_ebon equal   ebond
variable        my_eang equal   eangle
variable        my_edih equal   edihed
variable        my_evdw equal   evdwl
variable        my_eel  equal   (ecoul+elong)
variable        my_ent  equal   enthalpy
variable        my_P    equal   press
variable        my_vol  equal   vol

fix  averages all ave/time 100 10 1000 v_my_temp v_my_rho v_my_vol v_my_pe v_my_edih v_my_evdw v_my_eel v_my_ent v_my_P file thermo.avg

# INITIALIZE VELOCITIES AND CREATE THE CONSTRAINED RELAXATION FIX
velocity        all create 10.0 37274 mom yes rot yes

fix relax all nve/limit 0.01
run             10000
PPPM initialization ...
  G vector (1/distance) = 0.156228
  grid = 10 10 10
  stencil order = 5
  estimated absolute RMS force accuracy = 0.0197678
  estimated relative force accuracy = 5.95301e-05
  3d grid and FFT values/proc = 512 40
  update every 1 steps, delay 0 steps, check no
Step Temp Volume Density TotEng PotEng E_bond E_angle E_dihed E_coul E_long E_vdwl Enthalpy Press
0        10.0000000000     88999.8354552273         0.0998385147       206.8189559765       176.9810473760       175.0902248725        91.9155565822       -43.5482769035         0.0000000000         0.0000000000       -46.4764571752     -3471.6137137525     -2833.9861142150
Averages over the last 6 of 11 rows, steps 5000 to 10000:
Temp Volume Density TotEng PotEng E_bond E_angle E_dihed E_coul E_long E_vdwl Enthalpy Press
17.1155 88999.8 0.0998385 -553.305 -604.374 0.918541 10.3179 -38.8443 0 0 -576.766 -521.009 24.8815
Loop time of 14.3671 on 64 procs for 10000 steps with 1002 atoms

unfix relax

#===========================================================
# RESHAPE BOX FOR CONSTANT DENSITY NVT
#===========================================================
fix dynamics all nvt temp 10.0 10.0 100.0
velocity all create 10.0 37274 mom yes rot yes
fix mom all momentum 100 linear 1 1 1 angular

fix reshape  all deform 1 x final -11.611702913823104 11.611702913823104 y final -11.611702913823104 11.611702913823104 z final -11.611702913823104 11.611702913823104 units box
run             10000
PPPM initialization ...
  G vector (1/distance) = 0.156228
  grid = 10 10 10
  stencil order = 5
  estimated absolute RMS force accuracy = 0.0197678
  estimated relative force accuracy = 5.95301e-05
  3d grid and FFT values/proc = 512 40
Step Temp Volume Density TotEng PotEng E_bond E_angle E_dihed E_coul E_long E_vdwl Enthalpy Press
10000        10.0000000000     88999.8354552273         0.0998385147      -610.4082086054      -640.2461172059         0.8143330145        10.1887237732       -39.4619280319         0.0000000000         0.0000000000      -611.7872459617      -574.8622495746        27.3857817594
Averages over the last 6 of 11 rows, steps 15000 to 20000:
Temp Volume Density TotEng PotEng E_bond E_angle E_dihed E_coul E_long E_vdwl Enthalpy Press
10.2684 24491 0.420911 -658.736 -689.375 2.67674 12.3254 -39.9675 0 0 -664.41 -617.497 249.92
Loop time of 12.3479 on 64 procs for 10000 steps with 1002 atoms

unfix dynamics
unfix reshape
unfix mom

#===========================================================
# RUN RAMPED ANNEAL
#===========================================================

# REINITIALIZE THE VELOCITIES AND CREATE THE ANNEALING FIX
velocity        all create 10.0 37274 mom yes rot yes

fix mom all momentum 1000 linear 1 1 1 angular # Zero out system linear and angular momentum every ps
fix anneal all nvt temp 10.0 298.0 100.0

# CREATE COORDINATE DUMPS FOR ANNEAL
dump anneal all custom 1000 anneal.lammpstrj id type x y z mol
dump_modify anneal sort id format float %20.10g

# RUN RAMPED ANNEAL
run 50000
PPPM initialization ...
  G vector (1/distance) = 0.184168
  grid = 8 8 8
  stencil order = 5
  estimated absolute RMS force accuracy = 0.00816917
  estimated relative force accuracy = 2.46012e-05
  3d grid and FFT values/proc = 343 8
Step Temp Volume Density TotEng PotEng E_bond E_angle E_dihed E_coul E_long E_vdwl Enthalpy Press
20000        10.0000000000     12525.0000000000         0.7094300506      -711.5117706057      -741.3496792062         1.9022635531        11.2312452217       -39.2948264072         0.0000000000         0.0000000000      -715.1883615738      -389.8389587106      1761.0055776638
Averages over the last 26 of 51 rows, steps 45000 to 70000:
Temp Volume Density TotEng PotEng E_bond E_angle E_dihed E_coul E_long E_vdwl Enthalpy Press
224.941 12525 0.70943 507.26 -163.918 142.668 207.242 11.8673 0 0 -525.696 867.197 1970.49
Loop time of 50.2922 on 64 procs for 50000 steps with 1002 atoms

unfix anneal

# RUN EQUILIBRATION PHASE AT FINAL TEMP
fix anneal all nvt temp 298.0 298.0 100.0
run 50000
PPPM initialization ...
  G vector (1/distance) = 0.184168
  grid = 8 8 8
  stencil order = 5
  estimated absolute RMS force accuracy = 0.00816917
  estimated relative force accuracy = 2.46012e-05
  3d grid and FFT values/proc = 343 8
Step Temp Volume Density TotEng PotEng E_bond E_angle E_dihed E_coul E_long E_vdwl Enthalpy Press
70000       284.9476122958     12525.0000000000         0.7094300506       886.0550216642        35.8309405028       218.5966026215       309.7426766646        14.3464599224         0.0000000000         0.0000000000      -506.8547987057      1654.3977723239      4206.3109452678
Averages over the last 26 of 51 rows, steps 95000 to 120000:
Temp Volume Density TotEng PotEng E_bond E_angle E_dihed E_coul E_long E_vdwl Enthalpy Press
299.195 12525 0.70943 943.399 50.6638 247.13 310.442 12.6436 0 0 -519.552 1304.59 1977.34
Loop time of 50.255 on 64 procs for 50000 steps with 1002 atoms

unfix anneal
undump anneal

# RETURN TO LESS FREQUENT NEIGHBOR BUILDS
neigh_modify every 1 delay 10 check yes one 10000 # More relaxed rebuild criteria can be used

#===========================================================
# RUN EQUILIBRIUM SIM
#===========================================================

# UPDATE RUN PARAMETERS AND CREATE FIX
fix equil all nvt temp 298.0 298.0 100.0

# CREATE COORDINATE DUMPS FOR EQUILIBRIUM
dump equil all custom 1000 equil.lammpstrj id type x y z mol
dump_modify equil sort id format float %20.10g

# RUN EQUIL
run		100000
PPPM initialization ...
  G vector (1/distance) = 0.184168
  grid = 8 8 8
  stencil order = 5
  estimated absolute RMS force accuracy = 0.00816917
  estimated relative force accuracy = 2.46012e-05
  3d grid and FFT values/proc = 343 8
Step Temp Volume Density TotEng PotEng E_bond E_angle E_dihed E_coul E_long E_vdwl Enthalpy Press
120000       297.8049897750     12525.0000000000         0.7094300506       951.0279245054        62.4401179376       244.1854420969       327.5262438616         8.0269937644         0.0000000000         0.0000000000      -517.2985617853      1279.8199969811      1799.9801416541
Averages over the last 51 of 101 rows, steps 170000 to 220000:
Temp Volume Density TotEng PotEng E_bond E_angle E_dihed E_coul E_long E_vdwl Enthalpy Press
298.374 12525 0.70943 958.658 68.3717 263.086 319.441 12.881 0 0 -527.037 1257.77 1637.49
Loop time of 44.3886 on 64 procs for 100000 steps with 1002 atoms

unfix equil
undump equil

# WRITE RESTART FILES, CLEANUP, AND EXIT
write_restart   md-3.end.restart
PPPM initialization ...
  G vector (1/distance) = 0.184168
  grid = 8 8 8
  stencil order = 5
  estimated absolute RMS force accuracy = 0.00816917
  estimated relative force accuracy = 2.46012e-05
  3d grid and FFT values/proc = 343 8
write_data      md-3.end.data pair ii
PPPM initialization ...
  G vector (1/distance) = 0.184168
  grid = 8 8 8
  stencil order = 5
  estimated absolute RMS force accuracy = 0.00816917
  estimated relative force accuracy = 2.46012e-05
  3d grid and FFT values/proc = 343 8
unfix		averages
