#===========================================================
# GENERAL PROCEDURES
#===========================================================
units		real	# g/mol, angstroms, fs, kcal/mol, K, atm, charge*angstrom
dimension	3	# 3 dimensional simulation
newton		on	# use Newton's 3rd law
boundary	p p p	# periodic boundary conditions
atom_style	full    # molecular + charge

#===========================================================
# FORCE FIELD DEFINITION
#===========================================================
special_bonds  lj   0.0 0.0 0.0  coul 0.0 0.0 0.0     # NO     1-4 LJ/COUL interactions
pair_style     hybrid lj/cut/coul/long 14.0 14.0 # outer_LJ outer_Coul (cutoff values, see LAMMPS Doc)
kspace_style   pppm 0.0001          # long-range electrostatics sum method
bond_style     harmonic             # parameters needed: k_bond, r0
angle_style    harmonic             # parameters needed: k_theta, theta0
dihedral_style hybrid opls            # parameters needed: V1, V2, V3, V4
pair_modify    shift yes mix arithmetic       # using Lorenz-Berthelot mixing rules

#===========================================================
# SETUP SIMULATIONS
#===========================================================

# READ IN COEFFICIENTS/COORDINATES/TOPOLOGY
read_data md-4.data
  orthogonal box = (-11.6117 -11.6117 -11.6117) to (11.6117 11.6117 11.6117)
  reading atoms ...
  1002 atoms
  reading velocities ...
  1002 velocities
  scanning bonds ...
  scanning angles ...
  scanning dihedrals ...
  reading bonds ...
  835 bonds
  reading angles ...
  1169 angles
  reading dihedrals ...
  501 dihedrals
include md-4.in.settings
     # Non-bonded interactions (pair-wise)
     pair_coeff           1          1          lj/cut/coul/long     0.019227             2.419245
     pair_coeff           1          2          lj/cut/coul/long     0.004385             2.416486
     pair_coeff           1          3          lj/cut/coul/long     0.042208             3.024313
     pair_coeff           1          4          lj/cut/coul/long     0.053330             2.736156
     pair_coeff           2          2          lj/cut/coul/long     0.001000             2.413711
     pair_coeff           2          3          lj/cut/coul/long     0.009577             3.023411
     pair_coeff           2          4          lj/cut/coul/long     0.012119             2.734668
     pair_coeff           3          3          lj/cut/coul/long     0.203472             3.316154
     pair_coeff           3          4          lj/cut/coul/long     0.190481             3.153949
     pair_coeff           4          4          lj/cut/coul/long     0.203388             2.934631

     # Stretching interactions
     bond_coeff           1           366.904251           1.096103
     bond_coeff           2           612.219900           0.957501
     bond_coeff           3           368.709924           1.411527

     # Bending interactions
     angle_coeff          1           40.926667            108.205025
     angle_coeff          2           61.328715            112.232133
     angle_coeff          3           49.873049            108.741688

     # Dihedral interactions
     dihedral_coeff       1          opls                  0.105414            -0.205941             0.372587            -0.070860

# SET RUN PARAMETERS
timestep	1.0		# fs
run_style	verlet 		# Velocity-Verlet integrator
neigh_modify every 1 delay 0 check no one 10000 # More relaxed rebuild criteria can be used

#===========================================================
# RUN CONSTRAINED RELAXATION
#===========================================================

# SET OUTPUTS
thermo_style    custom step temp vol density etotal pe ebond eangle edihed ecoul elong evdwl enthalpy press
thermo_modify   format float %20.10f
thermo 1000

# DECLARE RELEVANT OUTPUT VARIABLES
variable        my_step equal   step
variable        my_temp equal   temp
variable        my_rho  equal   density
variable        my_pe   equal   pe
variable        my_ebon equal   ebond
variable        my_eang equal   eangle
variable        my_edih equal   edihed
variable        my_evdw equal   evdwl
variable        my_eel  equal   (ecoul+elong)
variable        my_ent  equal   enthalpy
variable        my_P    equal   press
variable        my_vol  equal   vol

fix  averages all ave/time 100 10 1000 v_my_temp v_my_rho v_my_vol v_my_pe v_my_edih v_my_evdw v_my_eel v_my_ent v_my_P file thermo.avg

# INITIALIZE VELOCITIES AND CREATE THE CONSTRAINED RELAXATION FIX
velocity        all create 100.0 21221 mom yes rot yes

fix relax all nve/limit 0.01
run             10000
PPPM initialization ...
  G vector (1/distance) = 0.184168
  grid = 8 8 8
  stencil order = 5
  estimated absolute RMS force accuracy = 0.00816917
  estimated relative force accuracy = 2.46012e-05
  3d grid and FFT values/proc = 343 8
  update every 1 steps, delay 0 steps, check no
Step Temp Volume Density TotEng PotEng E_bond E_angle E_dihed E_coul E_long E_vdwl Enthalpy Press
0       100.0000000000     12525.0000000000         0.7094300506       311.3685951579        12.9895091529       258.6787717764       310.6069036488        14.7340755629      3012.4025923909     -3055.3651074014      -528.0677268247      -285.7553813128     -3268.9696307460
Averages over the last 6 of 11 rows, steps 5000 to 10000:
Temp Volume Density TotEng PotEng E_bond E_angle E_dihed E_coul E_long E_vdwl Enthalpy Press
14.0736 12525 0.70943 -1395.58 -1437.57 4.3502 16.5908 -36.4495 2216.19 -3065.35 -572.902 -1695.58 -1642.37
Loop time of 10.9914 on 64 procs for 10000 steps with 1002 atoms

unfix relax

#===========================================================
# RUN RAMPED ANNEAL
#===========================================================

# REINITIALIZE THE VELOCITIES AND CREATE THE ANNEALING FIX
velocity        all create 100.0 21221 mom yes rot yes

fix mom all momentum 1000 linear 1 1 1 angular # Zero out system linear and angular momentum every ps
fix anneal all npt temp 100.0 298.0 100.0 iso 1.0 1.0 1000.0

# CREATE COORDINATE DUMPS FOR ANNEAL
dump anneal all custom 1000 anneal.lammpstrj id type x y z mol
dump_modify anneal sort id format float %20.10g

# RUN RAMPED ANNEAL
run 50000
PPPM initialization ...
  G vector (1/distance) = 0.184168
  grid = 8 8 8
  stencil order = 5
  estimated absolute RMS force accuracy = 0.00816917
  estimated relative force accuracy = 2.46012e-05
  3d grid and FFT values/proc = 343 8
Step Temp Volume Density TotEng PotEng E_bond E_angle E_dihed E_coul E_long E_vdwl Enthalpy Press
10000       100.0000000000     12525.0000000000         0.7094300506     -1155.7906499916     -1454.1697359966         4.4082129198        16.1585970009       -36.1185872341      2207.9463005568     -3065.1135104824      -581.4507487577     -1264.0862952086      -592.8671252641
Averages over the last 26 of 51 rows, steps 35000 to 60000:
Temp Volume Density TotEng PotEng E_bond E_angle E_dihed E_coul E_long E_vdwl Enthalpy Press
246.915 10367.6 0.858087 23.0793 -713.664 216.301 268.285 4.47054 2415.44 -3064.58 -553.583 -18.1409 -256.555
Loop time of 66.0277 on 64 procs for 50000 steps with 1002 atoms

unfix anneal

# RUN EQUILIBRATION PHASE AT FINAL TEMP
fix anneal all npt temp 298.0 298.0 100.0 iso 1.0 1.0 1000.0
run 50000
PPPM initialization ...
  G vector (1/distance) = 0.187612
  grid = 8 8 8
  stencil order = 5
  estimated absolute RMS force accuracy = 0.00691363
  estimated relative force accuracy = 2.08202e-05
  3d grid and FFT values/proc = 343 8
Step Temp Volume Density TotEng PotEng E_bond E_angle E_dihed E_coul E_long E_vdwl Enthalpy Press
60000       293.8490628278     10585.9582432020         0.8393771428       346.9069190373      -529.8772288627       271.9251786210       325.4422233545         9.0626450339      2516.1716622859     -3122.0238566430      -530.4550815150        -3.8701708577     -2272.0880358524
Averages over the last 26 of 51 rows, steps 85000 to 110000:
Temp Volume Density TotEng PotEng E_bond E_angle E_dihed E_coul E_long E_vdwl Enthalpy Press
298.161 11042.9 0.804784 388.027 -501.622 261.243 322.765 10.0452 2534.89 -3121.23 -509.334 385.082 -21.2323
Loop time of 62.524 on 64 procs for 50000 steps with 1002 atoms

unfix anneal
undump anneal

# RETURN TO LESS FREQUENT NEIGHBOR BUILDS
neigh_modify every 1 delay 10 check yes one 10000 # More relaxed rebuild criteria can be used

#===========================================================
# RUN EQUILIBRIUM SIM
#===========================================================

# UPDATE RUN PARAMETERS AND CREATE FIX
fix equil all npt temp 298.0 298.0 100.0 iso 1.0 1.0 1000.0

# CREATE COORDINATE DUMPS FOR EQUILIBRIUM
dump equil all custom 1000 equil.lammpstrj id type x y z mol
dump_modify equil sort id format float %20.10g

# RUN EQUIL
run		100000
PPPM initialization ...
  G vector (1/distance) = 0.186841
  grid = 8 8 8
  stencil order = 5
  estimated absolute RMS force accuracy = 0.0071789
  estimated relative force accuracy = 2.1619e-05
  3d grid and FFT values/proc = 343 8
Step Temp Volume Density TotEng PotEng E_bond E_angle E_dihed E_coul E_long E_vdwl Enthalpy Press
110000       307.7348341917     10994.4699135458         0.8081891581       415.3603792061      -502.8560063741       281.9470783736       322.4085782713         9.9112870567      2511.8106444818     -3108.8975147679      -520.0360797897       492.6680451924       482.1391268255
Averages over the last 51 of 101 rows, steps 160000 to 210000:
Temp Volume Density TotEng PotEng E_bond E_angle E_dihed E_coul E_long E_vdwl Enthalpy Press
298.468 11077.5 0.80239 395.061 -495.506 265.769 319.105 11.5485 2522.37 -3108.29 -506.008 366.89 -169.924
Loop time of 62.8412 on 64 procs for 100000 steps with 1002 atoms

unfix equil
undump equil

# WRITE RESTART FILES, CLEANUP, AND EXIT
write_restart   md-4.end.restart
PPPM initialization ...
  G vector (1/distance) = 0.186686
  grid = 8 8 8
  stencil order = 5
  estimated absolute RMS force accuracy = 0.00723343
  estimated relative force accuracy = 2.17833e-05
  3d grid and FFT values/proc = 343 8
write_data      md-4.end.data pair ii
PPPM initialization ...
  G vector (1/distance) = 0.186686
  grid = 8 8 8
  stencil order = 5
  estimated absolute RMS force accuracy = 0.00723343
  estimated relative force accuracy = 2.17833e-05
  3d grid and FFT values/proc = 343 8
unfix		averages
