#===========================================================
# GENERAL PROCEDURES
#===========================================================
units		real	# g/mol, angstroms, fs, kcal/mol, K, atm, charge*angstrom
dimension	3	# 3 dimensional simulation
newton		on	# use Newton's 3rd law
boundary	p p p	# periodic boundary conditions
atom_style	full    # molecular + charge

#===========================================================
# FORCE FIELD DEFINITION
#===========================================================
special_bonds  lj   0.0 0.0 0.0  coul 0.0 0.0 0.0     # NO     1-4 LJ/COUL interactions
pair_style     hybrid lj/cut/coul/long 14.0 14.0 # outer_LJ outer_Coul (cutoff values, see LAMMPS Doc)
kspace_style   pppm 0.0001          # long-range electrostatics sum method
bond_style     harmonic             # parameters needed: k_bond, r0
angle_style    harmonic             # parameters needed: k_theta, theta0
dihedral_style hybrid opls            # parameters needed: V1, V2, V3, V4
pair_modify    shift yes mix arithmetic       # using Lorenz-Berthelot mixing rules

#===========================================================
# SETUP SIMULATIONS
#===========================================================

# READ IN COEFFICIENTS/COORDINATES/TOPOLOGY
read_data md-22.data
  orthogonal box = (-11.3074 -11.3074 -11.3074) to (11.3074 11.3074 11.3074)
  reading atoms ...
  1002 atoms
  reading velocities ...
  1002 velocities
  scanning bonds ...
  scanning angles ...
  scanning dihedrals ...
  reading bonds ...
  835 bonds
  reading angles ...
  1169 angles
  reading dihedrals ...
  501 dihedrals
include md-22.in.settings
     # Non-bonded interactions (pair-wise)
     pair_coeff           1          1          lj/cut/coul/long     0.006622             2.470285
     pair_coeff           1          2          lj/cut/coul/long     0.001687             2.249206
     pair_coeff           1          3          lj/cut/coul/long     0.024381             3.135625
     pair_coeff           1          4          lj/cut/coul/long     0.032587             2.727555
     pair_coeff           2          2          lj/cut/coul/long     0.001000             1.779049
     pair_coeff           2          3          lj/cut/coul/long     0.003945             3.079410
     pair_coeff           2          4          lj/cut/coul/long     0.006203             2.607070
     pair_coeff           3          3          lj/cut/coul/long     0.213246             3.445727
     pair_coeff           3          4          lj/cut/coul/long     0.182074             3.229729
     pair_coeff           4          4          lj/cut/coul/long     0.200667             2.901179

     # Stretching interactions
     bond_coeff           1           366.904251           1.096103
     bond_coeff           2           612.219900           0.957501
     bond_coeff           3           368.709924           1.411527

     # Bending interactions
     angle_coeff          1           40.926667            108.205025
     angle_coeff          2           61.328715            112.232133
     angle_coeff          3           49.873049            108.741688

     # Dihedral interactions
     dihedral_coeff       1          opls                  0.105414            -0.205941             0.372587            -0.070860

# SET RUN PARAMETERS
timestep	1.0		# fs
run_style	verlet 		# Velocity-Verlet integrator
neigh_modify every 1 delay 0 check no one 10000 # More relaxed rebuild criteria can be used

#===========================================================
# RUN CONSTRAINED RELAXATION
#===========================================================

# SET OUTPUTS
thermo_style    custom step temp vol density etotal pe ebond eangle edihed ecoul elong evdwl enthalpy press
thermo_modify   format float %20.10f
thermo 1000

# DECLARE RELEVANT OUTPUT VARIABLES
variable        my_step equal   step
variable        my_temp equal   temp
variable        my_rho  equal   density
variable        my_pe   equal   pe
variable        my_ebon equal   ebond
variable        my_eang equal   eangle
variable        my_edih equal   edihed
variable        my_evdw equal   evdwl
variable        my_eel  equal   (ecoul+elong)
variable        my_ent  equal   enthalpy
variable        my_P    equal   press
variable        my_vol  equal   vol

fix  averages all ave/time 100 10 1000 v_my_temp v_my_rho v_my_vol v_my_pe v_my_edih v_my_evdw v_my_eel v_my_ent v_my_P file thermo.avg

# INITIALIZE VELOCITIES AND CREATE THE CONSTRAINED RELAXATION FIX
velocity        all create 100.0 47065 mom yes rot yes

fix relax all nve/limit 0.01
run             10000
PPPM initialization ...
  G vector (1/distance) = 0.185806
  grid = 8 8 8
  stencil order = 5
  estimated absolute RMS force accuracy = 0.00754932
  estimated relative force accuracy = 2.27346e-05
  3d grid and FFT values/proc = 343 8
  update every 1 steps, delay 0 steps, check no
Step Temp Volume Density TotEng PotEng E_bond E_angle E_dihed E_coul E_long E_vdwl Enthalpy Press
0       100.0000000000     11565.9221903695         0.7682579251      -259.7684950587      -558.1475810637       272.7479019579       307.6458415272        12.0556130525      2318.0254982861     -3091.0902126750      -377.5322232125      -451.1581800177     -1134.6511872539
Averages over the last 6 of 11 rows, steps 5000 to 10000:
Temp Volume Density TotEng PotEng E_bond E_angle E_dihed E_coul E_long E_vdwl Enthalpy Press
13.7107 11565.9 0.768258 -1476.37 -1517.28 8.52325 16.4608 -37.7529 2016.73 -3093.21 -428.04 -1850.07 -2215.46
Loop time of 12.0321 on 64 procs for 10000 steps with 1002 atoms

unfix relax

#===========================================================
# RUN RAMPED ANNEAL
#===========================================================

# REINITIALIZE THE VELOCITIES AND CREATE THE ANNEALING FIX
velocity        all create 100.0 47065 mom yes rot yes

fix mom all momentum 1000 linear 1 1 1 angular # Zero out system linear and angular momentum every ps
fix anneal all npt temp 100.0 298.0 100.0 iso 1.0 1.0 1000.0

# CREATE COORDINATE DUMPS FOR ANNEAL
dump anneal all custom 1000 anneal.lammpstrj id type x y z mol
dump_modify anneal sort id format float %20.10g

# RUN RAMPED ANNEAL
run 50000
PPPM initialization ...
  G vector (1/distance) = 0.185806
  grid = 8 8 8
  stencil order = 5
  estimated absolute RMS force accuracy = 0.00754932
  estimated relative force accuracy = 2.27346e-05
  3d grid and FFT values/proc = 343 8
Step Temp Volume Density TotEng PotEng E_bond E_angle E_dihed E_coul E_long E_vdwl Enthalpy Press
10000       100.0000000000     11565.9221903695         0.7682579251     -1232.2792107352     -1530.6582967402         8.4053591827        16.7261244379       -38.2003763454      2009.1623718889     -3092.6322005709      -434.1195753335     -1383.5610743490      -896.8725048903
Averages over the last 26 of 51 rows, steps 35000 to 60000:
Temp Volume Density TotEng PotEng E_bond E_angle E_dihed E_coul E_long E_vdwl Enthalpy Press
248.695 10429.1 0.852802 -56.1211 -798.176 229.781 262.748 5.81527 2224.72 -3092.15 -429.084 -8.58306 312.378
Loop time of 63.7489 on 64 procs for 50000 steps with 1002 atoms

unfix anneal

# RUN EQUILIBRATION PHASE AT FINAL TEMP
fix anneal all npt temp 298.0 298.0 100.0 iso 1.0 1.0 1000.0
run 50000
PPPM initialization ...
  G vector (1/distance) = 0.186459
  grid = 8 8 8
  stencil order = 5
  estimated absolute RMS force accuracy = 0.00731382
  estimated relative force accuracy = 2.20254e-05
  3d grid and FFT values/proc = 343 8
Step Temp Volume Density TotEng PotEng E_bond E_angle E_dihed E_coul E_long E_vdwl Enthalpy Press
60000       290.5009853693     11202.4780776763         0.7931826621       319.3403852099      -547.4537997705       299.2667070557       314.1669851920         9.9468254399      2326.4392364025     -3102.0790739081      -395.1944799526       341.6119198137       136.3201799466
Averages over the last 26 of 51 rows, steps 85000 to 110000:
Temp Volume Density TotEng PotEng E_bond E_angle E_dihed E_coul E_long E_vdwl Enthalpy Press
298.885 11352.3 0.783313 318.871 -572.939 274.293 317.531 11.3514 2318.06 -3101.89 -392.282 324.631 37.9766
Loop time of 59.1941 on 64 procs for 50000 steps with 1002 atoms

unfix anneal
undump anneal

# RETURN TO LESS FREQUENT NEIGHBOR BUILDS
neigh_modify every 1 delay 10 check yes one 10000 # More relaxed rebuild criteria can be used

#===========================================================
# RUN EQUILIBRIUM SIM
#===========================================================

# UPDATE RUN PARAMETERS AND CREATE FIX
fix equil all npt temp 298.0 298.0 100.0 iso 1.0 1.0 1000.0

# CREATE COORDINATE DUMPS FOR EQUILIBRIUM
dump equil all custom 1000 equil.lammpstrj id type x y z mol
dump_modify equil sort id format float %20.10g

# RUN EQUIL
run		100000
PPPM initialization ...
  G vector (1/distance) = 0.186287
  grid = 8 8 8
  stencil order = 5
  estimated absolute RMS force accuracy = 0.00737512
  estimated relative force accuracy = 2.221e-05
  3d grid and FFT values/proc = 343 8
Step Temp Volume Density TotEng PotEng E_bond E_angle E_dihed E_coul E_long E_vdwl Enthalpy Press
110000       285.3524129256     11297.0336606332         0.7865437645       272.3853143887      -579.0466071919       301.0761440228       306.1655737888        10.5617902800      2302.7264485916     -3098.3672907424      -401.2092731328      -117.5630563820     -2366.8285426778
Averages over the last 51 of 101 rows, steps 160000 to 210000:
Temp Volume Density TotEng PotEng E_bond E_angle E_dihed E_coul E_long E_vdwl Enthalpy Press
297.438 11274.9 0.788411 315.742 -571.752 271.805 317.352 11.347 2322.03 -3099.2 -395.08 279.649 -221.407
Loop time of 61.3867 on 64 procs for 100000 steps with 1002 atoms

unfix equil
undump equil

# WRITE RESTART FILES, CLEANUP, AND EXIT
write_restart   md-22.end.restart
PPPM initialization ...
  G vector (1/distance) = 0.185951
  grid = 8 8 8
  stencil order = 5
  estimated absolute RMS force accuracy = 0.00749627
  estimated relative force accuracy = 2.25748e-05
  3d grid and FFT values/proc = 343 8
write_data      md-22.end.data pair ii
PPPM initialization ...
  G vector (1/distance) = 0.185951
  grid = 8 8 8
  stencil order = 5
  estimated absolute RMS force accuracy = 0.00749627
  estimated relative force accuracy = 2.25748e-05
  3d grid and FFT values/proc = 343 8
unfix		averages
